REMARK  Name = C4-12
REMARK                            x       y       z     vdW  Elec       q    Type
REMARK                         _______ _______ _______ _____ _____    ______ ____
ROOT
ATOM      1  C   LIG    1      -23.564 -11.358  24.174  0.00  0.00    -0.069 C 
ATOM      2  C   LIG    1      -23.131 -12.838  23.898  0.00  0.00    -0.067 C 
ATOM      3  C   LIG    1      -23.396 -13.699  25.177  0.00  0.00    -0.084 C 
ATOM      4  C   LIG    1      -23.991 -13.415  22.774  0.00  0.00    -0.065 C 
ATOM      5  C   LIG    1      -25.489 -13.166  22.840  0.00  0.00    +0.083 C 
ATOM      6  C   LIG    1      -25.803 -11.665  23.041  0.00  0.00    +0.123 C 
ATOM      7  C   LIG    1      -23.490 -14.124  21.751  0.00  0.00    +0.134 C 
ATOM      8  C   LIG    1      -22.034 -14.439  21.553  0.00  0.00    +0.159 C 
ATOM      9  C   LIG    1      -21.186 -14.203  22.828  0.00  0.00    +0.013 C 
ATOM     10  C   LIG    1      -19.679 -14.157  22.449  0.00  0.00    +0.002 C 
ATOM     11  C   LIG    1      -19.061 -15.408  21.786  0.00  0.00    +0.005 C 
ATOM     12  C   LIG    1      -17.528 -15.171  21.949  0.00  0.00    +0.006 C 
ATOM     13  C   LIG    1      -17.359 -13.949  22.909  0.00  0.00    +0.008 C 
ATOM     14  C   LIG    1      -18.734 -13.880  23.645  0.00  0.00    -0.024 C 
ATOM     15  C   LIG    1      -19.120 -12.476  24.197  0.00  0.00    +0.006 C 
ATOM     16  C   LIG    1      -20.616 -12.440  24.628  0.00  0.00    -0.010 C 
ATOM     17  C   LIG    1      -18.784 -14.962  24.776  0.00  0.00    +0.012 C 
ATOM     18  C   LIG    1      -21.606 -12.854  23.487  0.00  0.00    -0.058 C 
ATOM     19  C   LIG    1      -25.095 -11.151  24.315  0.00  0.00    +0.018 C 
ENDROOT
BRANCH   6  20
ATOM     20  O   LIG    1      -27.221 -11.436  23.107  0.00  0.00    -0.390 OA
ATOM     21  H   LIG    1      -27.634 -11.874  23.844  0.00  0.00    +0.210 HD
ENDBRANCH   6  20
BRANCH  13  22
ATOM     22  C   LIG    1      -16.115 -14.011  23.845  0.00  0.00    +0.087 C 
BRANCH  22  23
ATOM     23  C   LIG    1      -14.775 -13.693  23.223  0.00  0.00    +0.123 C 
ATOM     24  N   LIG    1      -13.845 -13.117  23.875  0.00  0.00    -0.033 NA
ATOM     25  O   LIG    1      -12.735 -13.040  23.007  0.00  0.00    -0.068 OA
ATOM     26  C   LIG    1      -13.049 -13.601  21.841  0.00  0.00    +0.368 C 
ATOM     27  O   LIG    1      -12.255 -13.699  20.918  0.00  0.00    -0.282 OA
ATOM     28  C   LIG    1      -14.466 -14.079  21.812  0.00  0.00    +0.328 C 
ATOM     29  F   LIG    1      -14.576 -15.422  21.618  0.00  0.00    -0.269 F 
ATOM     30  F   LIG    1      -15.204 -13.382  20.904  0.00  0.00    -0.269 F 
ENDBRANCH  22  23
ENDBRANCH  13  22
TORSDOF 3
