MODEL 1
REMARK VINA RESULT:     -11.6      0.000      0.000
REMARK  Name = C4-12
REMARK                            x       y       z     vdW  Elec       q    Type
REMARK                         _______ _______ _______ _____ _____    ______ ____
ROOT
ATOM      1  C   LIG    1       16.882  -0.414  35.505  0.00  0.00    -0.069 C 
ATOM      2  C   LIG    1       16.513   0.561  34.335  0.00  0.00    -0.067 C 
ATOM      3  C   LIG    1       17.618   0.480  33.230  0.00  0.00    -0.084 C 
ATOM      4  C   LIG    1       15.198   0.112  33.699  0.00  0.00    -0.065 C 
ATOM      5  C   LIG    1       15.034  -1.370  33.401  0.00  0.00    +0.083 C 
ATOM      6  C   LIG    1       15.352  -2.233  34.644  0.00  0.00    +0.123 C 
ATOM      7  C   LIG    1       14.201   0.956  33.392  0.00  0.00    +0.134 C 
ATOM      8  C   LIG    1       14.221   2.438  33.637  0.00  0.00    +0.159 C 
ATOM      9  C   LIG    1       15.642   2.983  33.929  0.00  0.00    +0.013 C 
ATOM     10  C   LIG    1       15.537   4.402  34.555  0.00  0.00    +0.002 C 
ATOM     11  C   LIG    1       14.848   5.509  33.727  0.00  0.00    +0.005 C 
ATOM     12  C   LIG    1       15.299   6.818  34.446  0.00  0.00    +0.006 C 
ATOM     13  C   LIG    1       16.411   6.412  35.468  0.00  0.00    +0.008 C 
ATOM     14  C   LIG    1       16.902   5.030  34.932  0.00  0.00    -0.024 C 
ATOM     15  C   LIG    1       17.540   4.094  36.000  0.00  0.00    +0.006 C 
ATOM     16  C   LIG    1       17.708   2.649  35.444  0.00  0.00    -0.010 C 
ATOM     17  C   LIG    1       17.872   5.246  33.722  0.00  0.00    +0.012 C 
ATOM     18  C   LIG    1       16.372   2.023  34.916  0.00  0.00    -0.058 C 
ATOM     19  C   LIG    1       16.781  -1.920  35.144  0.00  0.00    +0.018 C 
ENDROOT
BRANCH   6  20
ATOM     20  O   LIG    1       15.199  -3.634  34.355  0.00  0.00    -0.390 OA
ATOM     21  H   LIG    1       14.568  -4.063  34.923  0.00  0.00    +0.210 HD
ENDBRANCH   6  20
BRANCH  13  22
ATOM     22  C   LIG    1       17.533   7.471  35.679  0.00  0.00    +0.087 C 
BRANCH  22  23
ATOM     23  C   LIG    1       18.366   7.345  36.934  0.00  0.00    +0.123 C 
ATOM     24  N   LIG    1       17.840   7.286  38.092  0.00  0.00    -0.033 NA
ATOM     25  O   LIG    1       18.902   7.110  39.006  0.00  0.00    -0.068 OA
ATOM     26  C   LIG    1       20.052   7.056  38.337  0.00  0.00    +0.368 C 
ATOM     27  O   LIG    1       21.128   6.875  38.886  0.00  0.00    -0.282 OA
ATOM     28  C   LIG    1       19.856   7.243  36.867  0.00  0.00    +0.328 C 
ATOM     29  F   LIG    1       20.259   6.172  36.130  0.00  0.00    -0.269 F 
ATOM     30  F   LIG    1       20.441   8.394  36.433  0.00  0.00    -0.269 F 
ENDBRANCH  22  23
ENDBRANCH  13  22
TORSDOF 3
ENDMDL
MODEL 2
REMARK VINA RESULT:     -11.5      1.283      1.496
REMARK  Name = C4-12
REMARK                            x       y       z     vdW  Elec       q    Type
REMARK                         _______ _______ _______ _____ _____    ______ ____
ROOT
ATOM      1  C   LIG    1       15.927  -1.386  35.142  0.00  0.00    -0.069 C 
ATOM      2  C   LIG    1       16.080  -0.353  33.974  0.00  0.00    -0.067 C 
ATOM      3  C   LIG    1       17.193  -0.847  32.992  0.00  0.00    -0.084 C 
ATOM      4  C   LIG    1       14.773  -0.287  33.184  0.00  0.00    -0.065 C 
ATOM      5  C   LIG    1       14.107  -1.604  32.819  0.00  0.00    +0.083 C 
ATOM      6  C   LIG    1       13.941  -2.514  34.058  0.00  0.00    +0.123 C 
ATOM      7  C   LIG    1       14.200   0.864  32.801  0.00  0.00    +0.134 C 
ATOM      8  C   LIG    1       14.739   2.235  33.098  0.00  0.00    +0.159 C 
ATOM      9  C   LIG    1       16.217   2.216  33.560  0.00  0.00    +0.013 C 
ATOM     10  C   LIG    1       16.574   3.577  34.220  0.00  0.00    +0.002 C 
ATOM     11  C   LIG    1       16.441   4.855  33.362  0.00  0.00    +0.005 C 
ATOM     12  C   LIG    1       17.260   5.908  34.170  0.00  0.00    +0.006 C 
ATOM     13  C   LIG    1       18.019   5.127  35.291  0.00  0.00    +0.008 C 
ATOM     14  C   LIG    1       18.022   3.657  34.763  0.00  0.00    -0.024 C 
ATOM     15  C   LIG    1       18.144   2.560  35.861  0.00  0.00    +0.006 C 
ATOM     16  C   LIG    1       17.828   1.151  35.277  0.00  0.00    -0.010 C 
ATOM     17  C   LIG    1       19.134   3.488  33.674  0.00  0.00    +0.012 C 
ATOM     18  C   LIG    1       16.424   1.061  34.586  0.00  0.00    -0.058 C 
ATOM     19  C   LIG    1       15.318  -2.749  34.720  0.00  0.00    +0.018 C 
ENDROOT
BRANCH   6  20
ATOM     20  O   LIG    1       13.315  -3.760  33.707  0.00  0.00    -0.390 OA
ATOM     21  H   LIG    1       12.701  -3.676  32.985  0.00  0.00    +0.210 HD
ENDBRANCH   6  20
BRANCH  13  22
ATOM     22  C   LIG    1       19.423   5.696  35.659  0.00  0.00    +0.087 C 
BRANCH  22  23
ATOM     23  C   LIG    1       19.540   6.428  36.975  0.00  0.00    +0.123 C 
ATOM     24  N   LIG    1       18.592   6.449  37.825  0.00  0.00    -0.033 NA
ATOM     25  O   LIG    1       19.072   7.163  38.944  0.00  0.00    -0.068 OA
ATOM     26  C   LIG    1       20.329   7.540  38.718  0.00  0.00    +0.368 C 
ATOM     27  O   LIG    1       20.996   8.148  39.541  0.00  0.00    -0.282 OA
ATOM     28  C   LIG    1       20.800   7.135  37.357  0.00  0.00    +0.328 C 
ATOM     29  F   LIG    1       21.867   6.289  37.388  0.00  0.00    -0.269 F 
ATOM     30  F   LIG    1       21.049   8.223  36.576  0.00  0.00    -0.269 F 
ENDBRANCH  22  23
ENDBRANCH  13  22
TORSDOF 3
ENDMDL
MODEL 3
REMARK VINA RESULT:     -11.4      4.176      8.814
REMARK  Name = C4-12
REMARK                            x       y       z     vdW  Elec       q    Type
REMARK                         _______ _______ _______ _____ _____    ______ ____
ROOT
ATOM      1  C   LIG    1       16.691   5.614  35.741  0.00  0.00    -0.069 C 
ATOM      2  C   LIG    1       17.579   4.677  34.854  0.00  0.00    -0.067 C 
ATOM      3  C   LIG    1       17.763   5.328  33.443  0.00  0.00    -0.084 C 
ATOM      4  C   LIG    1       18.966   4.552  35.482  0.00  0.00    -0.065 C 
ATOM      5  C   LIG    1       19.633   5.828  35.968  0.00  0.00    +0.083 C 
ATOM      6  C   LIG    1       18.695   6.638  36.894  0.00  0.00    +0.123 C 
ATOM      7  C   LIG    1       19.613   3.384  35.617  0.00  0.00    +0.134 C 
ATOM      8  C   LIG    1       19.073   2.047  35.191  0.00  0.00    +0.159 C 
ATOM      9  C   LIG    1       17.861   2.162  34.233  0.00  0.00    +0.013 C 
ATOM     10  C   LIG    1       17.124   0.795  34.162  0.00  0.00    +0.002 C 
ATOM     11  C   LIG    1       17.917  -0.429  33.654  0.00  0.00    +0.005 C 
ATOM     12  C   LIG    1       16.795  -1.460  33.318  0.00  0.00    +0.006 C 
ATOM     13  C   LIG    1       15.436  -0.692  33.402  0.00  0.00    +0.008 C 
ATOM     14  C   LIG    1       15.862   0.804  33.263  0.00  0.00    -0.024 C 
ATOM     15  C   LIG    1       14.878   1.833  33.893  0.00  0.00    +0.006 C 
ATOM     16  C   LIG    1       15.529   3.245  33.979  0.00  0.00    -0.010 C 
ATOM     17  C   LIG    1       16.138   1.138  31.759  0.00  0.00    +0.012 C 
ATOM     18  C   LIG    1       16.888   3.260  34.759  0.00  0.00    -0.058 C 
ATOM     19  C   LIG    1       17.373   6.945  36.155  0.00  0.00    +0.018 C 
ENDROOT
BRANCH   6  20
ATOM     20  O   LIG    1       19.329   7.846  37.347  0.00  0.00    -0.390 OA
ATOM     21  H   LIG    1       18.932   8.632  36.986  0.00  0.00    +0.210 HD
ENDBRANCH   6  20
BRANCH  13  22
ATOM     22  C   LIG    1       14.348  -1.162  32.390  0.00  0.00    +0.087 C 
BRANCH  22  23
ATOM     23  C   LIG    1       12.987  -1.496  32.956  0.00  0.00    +0.123 C 
ATOM     24  N   LIG    1       11.912  -1.035  32.452  0.00  0.00    -0.033 NA
ATOM     25  O   LIG    1       10.850  -1.600  33.189  0.00  0.00    -0.068 OA
ATOM     26  C   LIG    1       11.344  -2.410  34.123  0.00  0.00    +0.368 C 
ATOM     27  O   LIG    1       10.637  -3.055  34.882  0.00  0.00    -0.282 OA
ATOM     28  C   LIG    1       12.840  -2.422  34.121  0.00  0.00    +0.328 C 
ATOM     29  F   LIG    1       13.367  -3.650  33.862  0.00  0.00    -0.269 F 
ATOM     30  F   LIG    1       13.340  -1.898  35.274  0.00  0.00    -0.269 F 
ENDBRANCH  22  23
ENDBRANCH  13  22
TORSDOF 3
ENDMDL
MODEL 4
REMARK VINA RESULT:     -10.6      1.675      3.011
REMARK  Name = C4-12
REMARK                            x       y       z     vdW  Elec       q    Type
REMARK                         _______ _______ _______ _____ _____    ______ ____
ROOT
ATOM      1  C   LIG    1       15.182   1.008  30.988  0.00  0.00    -0.069 C 
ATOM      2  C   LIG    1       15.577   0.839  32.494  0.00  0.00    -0.067 C 
ATOM      3  C   LIG    1       14.282   0.851  33.371  0.00  0.00    -0.084 C 
ATOM      4  C   LIG    1       16.248  -0.521  32.691  0.00  0.00    -0.065 C 
ATOM      5  C   LIG    1       15.590  -1.727  32.041  0.00  0.00    +0.083 C 
ATOM      6  C   LIG    1       15.312  -1.477  30.540  0.00  0.00    +0.123 C 
ATOM      7  C   LIG    1       17.371  -0.693  33.405  0.00  0.00    +0.134 C 
ATOM      8  C   LIG    1       18.131   0.406  34.093  0.00  0.00    +0.159 C 
ATOM      9  C   LIG    1       17.310   1.712  34.234  0.00  0.00    +0.013 C 
ATOM     10  C   LIG    1       18.264   2.892  34.573  0.00  0.00    +0.002 C 
ATOM     11  C   LIG    1       19.093   2.801  35.874  0.00  0.00    +0.005 C 
ATOM     12  C   LIG    1       19.565   4.271  36.093  0.00  0.00    +0.006 C 
ATOM     13  C   LIG    1       18.780   5.155  35.070  0.00  0.00    +0.008 C 
ATOM     14  C   LIG    1       17.555   4.264  34.694  0.00  0.00    -0.024 C 
ATOM     15  C   LIG    1       16.924   4.559  33.301  0.00  0.00    +0.006 C 
ATOM     16  C   LIG    1       15.929   3.434  32.892  0.00  0.00    -0.010 C 
ATOM     17  C   LIG    1       16.477   4.340  35.827  0.00  0.00    +0.012 C 
ATOM     18  C   LIG    1       16.566   2.003  32.895  0.00  0.00    -0.058 C 
ATOM     19  C   LIG    1       14.441  -0.211  30.376  0.00  0.00    +0.018 C 
ENDROOT
BRANCH   6  20
ATOM     20  O   LIG    1       14.686  -2.619  29.932  0.00  0.00    -0.390 OA
ATOM     21  H   LIG    1       13.790  -2.752  30.224  0.00  0.00    +0.210 HD
ENDBRANCH   6  20
BRANCH  13  22
ATOM     22  C   LIG    1       18.422   6.586  35.572  0.00  0.00    +0.087 C 
BRANCH  22  23
ATOM     23  C   LIG    1       18.948   6.985  36.931  0.00  0.00    +0.123 C 
ATOM     24  N   LIG    1       18.232   6.916  37.982  0.00  0.00    -0.033 NA
ATOM     25  O   LIG    1       19.060   7.303  39.058  0.00  0.00    -0.068 OA
ATOM     26  C   LIG    1       20.277   7.584  38.597  0.00  0.00    +0.368 C 
ATOM     27  O   LIG    1       21.201   7.914  39.324  0.00  0.00    -0.282 OA
ATOM     28  C   LIG    1       20.359   7.448  37.110  0.00  0.00    +0.328 C 
ATOM     29  F   LIG    1       21.256   6.507  36.705  0.00  0.00    -0.269 F 
ATOM     30  F   LIG    1       20.596   8.650  36.516  0.00  0.00    -0.269 F 
ENDBRANCH  22  23
ENDBRANCH  13  22
TORSDOF 3
ENDMDL
MODEL 5
REMARK VINA RESULT:     -10.4      3.762      8.432
REMARK  Name = C4-12
REMARK                            x       y       z     vdW  Elec       q    Type
REMARK                         _______ _______ _______ _____ _____    ______ ____
ROOT
ATOM      1  C   LIG    1       20.549   5.378  35.502  0.00  0.00    -0.069 C 
ATOM      2  C   LIG    1       19.124   4.880  35.920  0.00  0.00    -0.067 C 
ATOM      3  C   LIG    1       19.245   3.982  37.195  0.00  0.00    -0.084 C 
ATOM      4  C   LIG    1       18.257   6.083  36.291  0.00  0.00    -0.065 C 
ATOM      5  C   LIG    1       18.876   7.143  37.188  0.00  0.00    +0.083 C 
ATOM      6  C   LIG    1       20.244   7.614  36.643  0.00  0.00    +0.123 C 
ATOM      7  C   LIG    1       16.992   6.239  35.870  0.00  0.00    +0.134 C 
ATOM      8  C   LIG    1       16.257   5.280  34.976  0.00  0.00    +0.159 C 
ATOM      9  C   LIG    1       16.947   3.896  34.879  0.00  0.00    +0.013 C 
ATOM     10  C   LIG    1       16.378   3.117  33.660  0.00  0.00    +0.002 C 
ATOM     11  C   LIG    1       14.864   2.810  33.639  0.00  0.00    +0.005 C 
ATOM     12  C   LIG    1       14.746   1.698  32.552  0.00  0.00    +0.006 C 
ATOM     13  C   LIG    1       16.203   1.252  32.201  0.00  0.00    +0.008 C 
ATOM     14  C   LIG    1       17.030   1.729  33.436  0.00  0.00    -0.024 C 
ATOM     15  C   LIG    1       18.540   1.990  33.161  0.00  0.00    +0.006 C 
ATOM     16  C   LIG    1       19.200   2.748  34.351  0.00  0.00    -0.010 C 
ATOM     17  C   LIG    1       16.839   0.724  34.622  0.00  0.00    +0.012 C 
ATOM     18  C   LIG    1       18.484   4.094  34.709  0.00  0.00    -0.058 C 
ATOM     19  C   LIG    1       21.186   6.400  36.481  0.00  0.00    +0.018 C 
ENDROOT
BRANCH   6  20
ATOM     20  O   LIG    1       20.827   8.613  37.497  0.00  0.00    -0.390 OA
ATOM     21  H   LIG    1       21.740   8.439  37.703  0.00  0.00    +0.210 HD
ENDBRANCH   6  20
BRANCH  13  22
ATOM     22  C   LIG    1       16.364  -0.256  31.846  0.00  0.00    +0.087 C 
BRANCH  22  23
ATOM     23  C   LIG    1       15.151  -1.137  32.036  0.00  0.00    +0.123 C 
ATOM     24  N   LIG    1       14.354  -1.408  31.081  0.00  0.00    -0.033 NA
ATOM     25  O   LIG    1       13.388  -2.294  31.604  0.00  0.00    -0.068 OA
ATOM     26  C   LIG    1       13.661  -2.536  32.884  0.00  0.00    +0.368 C 
ATOM     27  O   LIG    1       12.998  -3.300  33.570  0.00  0.00    -0.282 OA
ATOM     28  C   LIG    1       14.853  -1.767  33.359  0.00  0.00    +0.328 C 
ATOM     29  F   LIG    1       15.872  -2.563  33.783  0.00  0.00    -0.269 F 
ATOM     30  F   LIG    1       14.505  -0.854  34.308  0.00  0.00    -0.269 F 
ENDBRANCH  22  23
ENDBRANCH  13  22
TORSDOF 3
ENDMDL
MODEL 6
REMARK VINA RESULT:     -10.0      3.948      8.444
REMARK  Name = C4-12
REMARK                            x       y       z     vdW  Elec       q    Type
REMARK                         _______ _______ _______ _____ _____    ______ ____
ROOT
ATOM      1  C   LIG    1       19.510   4.227  36.435  0.00  0.00    -0.069 C 
ATOM      2  C   LIG    1       18.051   4.347  35.876  0.00  0.00    -0.067 C 
ATOM      3  C   LIG    1       17.034   4.203  37.056  0.00  0.00    -0.084 C 
ATOM      4  C   LIG    1       17.854   5.736  35.271  0.00  0.00    -0.065 C 
ATOM      5  C   LIG    1       18.354   6.927  36.073  0.00  0.00    +0.083 C 
ATOM      6  C   LIG    1       19.825   6.735  36.510  0.00  0.00    +0.123 C 
ATOM      7  C   LIG    1       17.264   5.948  34.084  0.00  0.00    +0.134 C 
ATOM      8  C   LIG    1       16.732   4.870  33.183  0.00  0.00    +0.159 C 
ATOM      9  C   LIG    1       16.575   3.506  33.900  0.00  0.00    +0.013 C 
ATOM     10  C   LIG    1       16.415   2.377  32.843  0.00  0.00    +0.002 C 
ATOM     11  C   LIG    1       15.215   2.458  31.873  0.00  0.00    +0.005 C 
ATOM     12  C   LIG    1       15.137   1.014  31.290  0.00  0.00    +0.006 C 
ATOM     13  C   LIG    1       16.112   0.132  32.134  0.00  0.00    +0.008 C 
ATOM     14  C   LIG    1       16.294   0.956  33.447  0.00  0.00    -0.024 C 
ATOM     15  C   LIG    1       17.620   0.689  34.218  0.00  0.00    +0.006 C 
ATOM     16  C   LIG    1       17.847   1.765  35.322  0.00  0.00    -0.010 C 
ATOM     17  C   LIG    1       15.051   0.750  34.378  0.00  0.00    +0.012 C 
ATOM     18  C   LIG    1       17.834   3.233  34.777  0.00  0.00    -0.058 C 
ATOM     19  C   LIG    1       19.961   5.422  37.315  0.00  0.00    +0.018 C 
ENDROOT
BRANCH   6  20
ATOM     20  O   LIG    1       20.291   7.861  37.272  0.00  0.00    -0.390 OA
ATOM     21  H   LIG    1       19.755   8.638  37.152  0.00  0.00    +0.210 HD
ENDBRANCH   6  20
BRANCH  13  22
ATOM     22  C   LIG    1       15.657  -1.344  32.342  0.00  0.00    +0.087 C 
BRANCH  22  23
ATOM     23  C   LIG    1       14.221  -1.563  32.759  0.00  0.00    +0.123 C 
ATOM     24  N   LIG    1       13.247  -1.014  32.149  0.00  0.00    -0.033 NA
ATOM     25  O   LIG    1       12.069  -1.489  32.766  0.00  0.00    -0.068 OA
ATOM     26  C   LIG    1       12.394  -2.338  33.739  0.00  0.00    +0.368 C 
ATOM     27  O   LIG    1       11.560  -2.922  34.414  0.00  0.00    -0.282 OA
ATOM     28  C   LIG    1       13.875  -2.474  33.893  0.00  0.00    +0.328 C 
ATOM     29  F   LIG    1       14.323  -3.742  33.680  0.00  0.00    -0.269 F 
ATOM     30  F   LIG    1       14.293  -1.994  35.098  0.00  0.00    -0.269 F 
ENDBRANCH  22  23
ENDBRANCH  13  22
TORSDOF 3
ENDMDL
MODEL 7
REMARK VINA RESULT:      -9.7      3.668      8.449
REMARK  Name = C4-12
REMARK                            x       y       z     vdW  Elec       q    Type
REMARK                         _______ _______ _______ _____ _____    ______ ____
ROOT
ATOM      1  C   LIG    1       18.507   6.947  36.273  0.00  0.00    -0.069 C 
ATOM      2  C   LIG    1       18.935   5.468  35.984  0.00  0.00    -0.067 C 
ATOM      3  C   LIG    1       19.986   5.453  34.826  0.00  0.00    -0.084 C 
ATOM      4  C   LIG    1       19.614   4.887  37.224  0.00  0.00    -0.065 C 
ATOM      5  C   LIG    1       20.651   5.750  37.924  0.00  0.00    +0.083 C 
ATOM      6  C   LIG    1       20.099   7.162  38.226  0.00  0.00    +0.123 C 
ATOM      7  C   LIG    1       19.343   3.666  37.710  0.00  0.00    +0.134 C 
ATOM      8  C   LIG    1       18.339   2.711  37.129  0.00  0.00    +0.159 C 
ATOM      9  C   LIG    1       17.904   3.093  35.691  0.00  0.00    +0.013 C 
ATOM     10  C   LIG    1       16.605   2.324  35.319  0.00  0.00    +0.002 C 
ATOM     11  C   LIG    1       16.651   0.780  35.325  0.00  0.00    +0.005 C 
ATOM     12  C   LIG    1       15.375   0.387  34.518  0.00  0.00    +0.006 C 
ATOM     13  C   LIG    1       14.819   1.703  33.884  0.00  0.00    +0.008 C 
ATOM     14  C   LIG    1       16.051   2.662  33.913  0.00  0.00    -0.024 C 
ATOM     15  C   LIG    1       15.707   4.181  33.927  0.00  0.00    +0.006 C 
ATOM     16  C   LIG    1       16.965   5.032  34.267  0.00  0.00    -0.010 C 
ATOM     17  C   LIG    1       17.020   2.316  32.732  0.00  0.00    +0.012 C 
ATOM     18  C   LIG    1       17.648   4.629  35.618  0.00  0.00    -0.058 C 
ATOM     19  C   LIG    1       19.615   7.824  36.915  0.00  0.00    +0.018 C 
ENDROOT
BRANCH   6  20
ATOM     20  O   LIG    1       21.085   7.976  38.884  0.00  0.00    -0.390 OA
ATOM     21  H   LIG    1       21.976   7.684  38.719  0.00  0.00    +0.210 HD
ENDBRANCH   6  20
BRANCH  13  22
ATOM     22  C   LIG    1       14.153   1.532  32.486  0.00  0.00    +0.087 C 
BRANCH  22  23
ATOM     23  C   LIG    1       14.163   0.143  31.889  0.00  0.00    +0.123 C 
ATOM     24  N   LIG    1       13.271  -0.722  32.171  0.00  0.00    -0.033 NA
ATOM     25  O   LIG    1       13.560  -1.863  31.393  0.00  0.00    -0.068 OA
ATOM     26  C   LIG    1       14.636  -1.625  30.645  0.00  0.00    +0.368 C 
ATOM     27  O   LIG    1       15.084  -2.438  29.851  0.00  0.00    -0.282 OA
ATOM     28  C   LIG    1       15.208  -0.267  30.902  0.00  0.00    +0.328 C 
ATOM     29  F   LIG    1       15.207   0.533  29.801  0.00  0.00    -0.269 F 
ATOM     30  F   LIG    1       16.449  -0.351  31.457  0.00  0.00    -0.269 F 
ENDBRANCH  22  23
ENDBRANCH  13  22
TORSDOF 3
ENDMDL
MODEL 8
REMARK VINA RESULT:      -9.6      3.890      8.443
REMARK  Name = C4-12
REMARK                            x       y       z     vdW  Elec       q    Type
REMARK                         _______ _______ _______ _____ _____    ______ ____
ROOT
ATOM      1  C   LIG    1       20.405   5.300  35.324  0.00  0.00    -0.069 C 
ATOM      2  C   LIG    1       18.990   4.816  35.790  0.00  0.00    -0.067 C 
ATOM      3  C   LIG    1       19.146   3.928  37.069  0.00  0.00    -0.084 C 
ATOM      4  C   LIG    1       18.144   6.028  36.177  0.00  0.00    -0.065 C 
ATOM      5  C   LIG    1       18.797   7.091  37.045  0.00  0.00    +0.083 C 
ATOM      6  C   LIG    1       20.151   7.548  36.453  0.00  0.00    +0.123 C 
ATOM      7  C   LIG    1       16.868   6.189  35.794  0.00  0.00    +0.134 C 
ATOM      8  C   LIG    1       16.099   5.228  34.932  0.00  0.00    +0.159 C 
ATOM      9  C   LIG    1       16.776   3.838  34.826  0.00  0.00    +0.013 C 
ATOM     10  C   LIG    1       16.164   3.052  33.632  0.00  0.00    +0.002 C 
ATOM     11  C   LIG    1       14.648   2.756  33.661  0.00  0.00    +0.005 C 
ATOM     12  C   LIG    1       14.489   1.635  32.588  0.00  0.00    +0.006 C 
ATOM     13  C   LIG    1       15.931   1.175  32.196  0.00  0.00    +0.008 C 
ATOM     14  C   LIG    1       16.799   1.658  33.401  0.00  0.00    -0.024 C 
ATOM     15  C   LIG    1       18.302   1.905  33.077  0.00  0.00    +0.006 C 
ATOM     16  C   LIG    1       19.003   2.669  34.239  0.00  0.00    -0.010 C 
ATOM     17  C   LIG    1       16.639   0.665  34.601  0.00  0.00    +0.012 C 
ATOM     18  C   LIG    1       18.308   4.024  34.606  0.00  0.00    -0.058 C 
ATOM     19  C   LIG    1       21.080   6.326  36.273  0.00  0.00    +0.018 C 
ENDROOT
BRANCH   6  20
ATOM     20  O   LIG    1       20.767   8.550  37.280  0.00  0.00    -0.390 OA
ATOM     21  H   LIG    1       20.751   9.417  36.887  0.00  0.00    +0.210 HD
ENDBRANCH   6  20
BRANCH  13  22
ATOM     22  C   LIG    1       16.071  -0.337  31.849  0.00  0.00    +0.087 C 
BRANCH  22  23
ATOM     23  C   LIG    1       15.267  -1.307  32.683  0.00  0.00    +0.123 C 
ATOM     24  N   LIG    1       15.676  -1.732  33.812  0.00  0.00    -0.033 NA
ATOM     25  O   LIG    1       14.654  -2.559  34.324  0.00  0.00    -0.068 OA
ATOM     26  C   LIG    1       13.638  -2.586  33.463  0.00  0.00    +0.368 C 
ATOM     27  O   LIG    1       12.606  -3.203  33.677  0.00  0.00    -0.282 OA
ATOM     28  C   LIG    1       13.924  -1.786  32.233  0.00  0.00    +0.328 C 
ATOM     29  F   LIG    1       13.054  -0.755  32.048  0.00  0.00    -0.269 F 
ATOM     30  F   LIG    1       13.994  -2.583  31.130  0.00  0.00    -0.269 F 
ENDBRANCH  22  23
ENDBRANCH  13  22
TORSDOF 3
ENDMDL
MODEL 9
REMARK VINA RESULT:      -9.3      3.871      8.637
REMARK  Name = C4-12
REMARK                            x       y       z     vdW  Elec       q    Type
REMARK                         _______ _______ _______ _____ _____    ______ ____
ROOT
ATOM      1  C   LIG    1       18.494   6.066  38.136  0.00  0.00    -0.069 C 
ATOM      2  C   LIG    1       18.676   6.017  36.581  0.00  0.00    -0.067 C 
ATOM      3  C   LIG    1       17.834   7.162  35.927  0.00  0.00    -0.084 C 
ATOM      4  C   LIG    1       20.142   6.275  36.236  0.00  0.00    -0.065 C 
ATOM      5  C   LIG    1       20.837   7.425  36.946  0.00  0.00    +0.083 C 
ATOM      6  C   LIG    1       20.654   7.334  38.479  0.00  0.00    +0.123 C 
ATOM      7  C   LIG    1       20.830   5.546  35.343  0.00  0.00    +0.134 C 
ATOM      8  C   LIG    1       20.276   4.379  34.575  0.00  0.00    +0.159 C 
ATOM      9  C   LIG    1       18.729   4.312  34.611  0.00  0.00    +0.013 C 
ATOM     10  C   LIG    1       18.259   2.901  34.157  0.00  0.00    +0.002 C 
ATOM     11  C   LIG    1       18.645   2.432  32.737  0.00  0.00    +0.005 C 
ATOM     12  C   LIG    1       17.681   1.231  32.490  0.00  0.00    +0.006 C 
ATOM     13  C   LIG    1       16.637   1.242  33.653  0.00  0.00    +0.008 C 
ATOM     14  C   LIG    1       16.723   2.703  34.196  0.00  0.00    -0.024 C 
ATOM     15  C   LIG    1       16.292   2.884  35.682  0.00  0.00    +0.006 C 
ATOM     16  C   LIG    1       16.702   4.289  36.212  0.00  0.00    -0.010 C 
ATOM     17  C   LIG    1       15.920   3.665  33.257  0.00  0.00    +0.012 C 
ATOM     18  C   LIG    1       18.231   4.593  36.061  0.00  0.00    -0.058 C 
ATOM     19  C   LIG    1       19.147   7.294  38.822  0.00  0.00    +0.018 C 
ENDROOT
BRANCH   6  20
ATOM     20  O   LIG    1       21.310   8.426  39.146  0.00  0.00    -0.390 OA
ATOM     21  H   LIG    1       20.798   9.229  39.135  0.00  0.00    +0.210 HD
ENDBRANCH   6  20
BRANCH  13  22
ATOM     22  C   LIG    1       15.205   0.769  33.261  0.00  0.00    +0.087 C 
BRANCH  22  23
ATOM     23  C   LIG    1       14.821  -0.640  33.647  0.00  0.00    +0.123 C 
ATOM     24  N   LIG    1       15.119  -1.137  34.781  0.00  0.00    -0.033 NA
ATOM     25  O   LIG    1       14.553  -2.430  34.813  0.00  0.00    -0.068 OA
ATOM     26  C   LIG    1       13.910  -2.657  33.670  0.00  0.00    +0.368 C 
ATOM     27  O   LIG    1       13.300  -3.691  33.448  0.00  0.00    -0.282 OA
ATOM     28  C   LIG    1       14.033  -1.508  32.720  0.00  0.00    +0.328 C 
ATOM     29  F   LIG    1       12.835  -0.949  32.396  0.00  0.00    -0.269 F 
ATOM     30  F   LIG    1       14.735  -1.861  31.607  0.00  0.00    -0.269 F 
ENDBRANCH  22  23
ENDBRANCH  13  22
TORSDOF 3
ENDMDL
MODEL 10
REMARK VINA RESULT:      -9.2      3.777      8.613
REMARK  Name = C4-12
REMARK                            x       y       z     vdW  Elec       q    Type
REMARK                         _______ _______ _______ _____ _____    ______ ____
ROOT
ATOM      1  C   LIG    1       18.169   6.171  37.849  0.00  0.00    -0.069 C 
ATOM      2  C   LIG    1       18.498   5.993  36.327  0.00  0.00    -0.067 C 
ATOM      3  C   LIG    1       17.898   7.196  35.527  0.00  0.00    -0.084 C 
ATOM      4  C   LIG    1       20.013   6.025  36.131  0.00  0.00    -0.065 C 
ATOM      5  C   LIG    1       20.790   7.114  36.853  0.00  0.00    +0.083 C 
ATOM      6  C   LIG    1       20.442   7.152  38.359  0.00  0.00    +0.123 C 
ATOM      7  C   LIG    1       20.676   5.151  35.359  0.00  0.00    +0.134 C 
ATOM      8  C   LIG    1       20.042   4.022  34.597  0.00  0.00    +0.159 C 
ATOM      9  C   LIG    1       18.505   4.169  34.466  0.00  0.00    +0.013 C 
ATOM     10  C   LIG    1       17.886   2.808  34.039  0.00  0.00    +0.002 C 
ATOM     11  C   LIG    1       18.343   2.196  32.695  0.00  0.00    +0.005 C 
ATOM     12  C   LIG    1       17.247   1.124  32.407  0.00  0.00    +0.006 C 
ATOM     13  C   LIG    1       16.104   1.356  33.448  0.00  0.00    +0.008 C 
ATOM     14  C   LIG    1       16.342   2.825  33.920  0.00  0.00    -0.024 C 
ATOM     15  C   LIG    1       15.793   3.162  35.338  0.00  0.00    +0.006 C 
ATOM     16  C   LIG    1       16.345   4.530  35.836  0.00  0.00    -0.010 C 
ATOM     17  C   LIG    1       15.784   3.822  32.849  0.00  0.00    +0.012 C 
ATOM     18  C   LIG    1       17.909   4.612  35.837  0.00  0.00    -0.058 C 
ATOM     19  C   LIG    1       18.919   7.341  38.537  0.00  0.00    +0.018 C 
ENDROOT
BRANCH   6  20
ATOM     20  O   LIG    1       21.176   8.186  39.035  0.00  0.00    -0.390 OA
ATOM     21  H   LIG    1       21.477   8.873  38.449  0.00  0.00    +0.210 HD
ENDBRANCH   6  20
BRANCH  13  22
ATOM     22  C   LIG    1       14.666   1.058  32.927  0.00  0.00    +0.087 C 
BRANCH  22  23
ATOM     23  C   LIG    1       14.321  -0.389  32.661  0.00  0.00    +0.123 C 
ATOM     24  N   LIG    1       14.418  -0.907  31.501  0.00  0.00    -0.033 NA
ATOM     25  O   LIG    1       14.079  -2.269  31.641  0.00  0.00    -0.068 OA
ATOM     26  C   LIG    1       13.798  -2.524  32.917  0.00  0.00    +0.368 C 
ATOM     27  O   LIG    1       13.505  -3.639  33.321  0.00  0.00    -0.282 OA
ATOM     28  C   LIG    1       13.883  -1.296  33.766  0.00  0.00    +0.328 C 
ATOM     29  F   LIG    1       14.821  -1.386  34.749  0.00  0.00    -0.269 F 
ATOM     30  F   LIG    1       12.664  -0.958  34.270  0.00  0.00    -0.269 F 
ENDBRANCH  22  23
ENDBRANCH  13  22
TORSDOF 3
ENDMDL
