@<TRIPOS>MOLECULE

95 103 1
SMALL
USER_CHARGES
@<TRIPOS>ATOM
1	O1    -1.4245    -1.2788     0.0000	O.2	1	noname	-0.2719
2	C1    -0.1786    -0.3737     0.0000	C.2	1	noname	0.0997
3	C2     1.2282    -1.0001     0.0000	C.2	1	noname	-0.0047
4	C3     1.5484    -2.5064     0.0000	C.2	1	noname	-0.0046
5	C4     3.0800    -2.6674     0.0000	C.2	1	noname	-0.0727
6	C5     3.8500    -4.0010     0.0000	C.2	1	noname	0.0079
7	C6     5.3900    -4.0010     0.0000	C.2	1	noname	0.0097
8	C7     6.1600    -5.3348     0.0000	C.2	1	noname	0.0504
9	C8     5.3900    -6.6684     0.0000	C.2	1	noname	0.0419
10	C9     3.8500    -6.6684     0.0000	C.2	1	noname	0.0293
11	C10     3.0800    -5.3348     0.0000	C.2	1	noname	0.0013
12	C11     1.5400    -5.3348     0.0000	C.2	1	noname	0.0212
13	O2     0.7700    -4.0010     0.0000	O.2	1	noname	-0.2934
14	N1     0.7700    -6.6684     0.0000	N.3	1	noname	-0.0607
15	C12     1.5400    -8.0021     0.0000	C.3	1	noname	0.0318
16	C13     0.7700    -9.3358     0.0000	C.2	1	noname	-0.0431
17	C14     1.5400   -10.6695     0.0000	C.2	1	noname	-0.0512
18	C15     0.7700   -12.0031     0.0000	C.2	1	noname	-0.0588
19	C16    -0.7700   -12.0031     0.0000	C.2	1	noname	-0.0596
20	C17    -1.5400   -10.6695     0.0000	C.2	1	noname	-0.0540
21	C18    -0.7700    -9.3358     0.0000	C.2	1	noname	-0.0451
22	C19    -1.5400    -8.0021     0.0000	C.3	1	noname	-0.0101
23	C20    -0.7700    -6.6684     0.0000	C.3	1	noname	0.0346
24	C21    -1.5400    -5.3348     0.0000	C.3	1	noname	0.0149
25	N2    -3.0800    -5.3348     0.0000	N.3	1	noname	-0.2971
26	C22    -3.8500    -6.6684     0.0000	C.3	1	noname	0.0219
27	C23    -5.3900    -6.6684     0.0000	C.3	1	noname	0.0595
28	O3    -6.1600    -5.3348     0.0000	O.3	1	noname	-0.3786
29	C24    -5.3900    -4.0010     0.0000	C.3	1	noname	0.0595
30	C25    -3.8500    -4.0010     0.0000	C.3	1	noname	0.0219
31	O4     6.4205    -7.8129     0.0000	O.3	1	noname	-0.2439
32	C26     7.8273    -7.1865     0.0000	C.3	1	noname	0.1587
33	O5     7.6664    -5.6549     0.0000	O.3	1	noname	-0.2423
34	N3     3.7064    -1.2605     0.0000	N.3	1	noname	0.0170
35	C27     2.5620    -0.2301     0.0000	C.2	1	noname	-0.0319
36	C28     2.8822     1.2764     0.0000	C.3	1	noname	0.0257
37	C29     4.3467     1.7522     0.0000	C.3	1	noname	-0.0465
38	C30     5.4913     0.7218     0.0000	C.3	1	noname	-0.0366
39	C31     5.1710    -0.7846     0.0000	C.3	1	noname	-0.0395
40	N4    -0.3396     1.1579     0.0000	N.3	1	noname	-0.1227
41	C32    -1.7465     1.7843     0.0000	C.2	1	noname	-0.0300
42	C33    -1.9075     3.3158     0.0000	C.2	1	noname	-0.0198
43	C34    -3.3143     3.9422     0.0000	C.2	1	noname	-0.0228
44	C35    -4.5602     3.0370     0.0000	C.2	1	noname	0.0026
45	O6    -5.9670     3.6634     0.0000	O.3	1	noname	-0.2862
46	C36    -4.3992     1.5055     0.0000	C.2	1	noname	-0.0228
47	C37    -2.9923     0.8791     0.0000	C.2	1	noname	-0.0198
48	C38     0.9063     2.0631     0.0000	C.2	1	noname	-0.0134
49	C39     0.7454     3.5947     0.0000	C.2	1	noname	-0.0194
50	C40     1.9912     4.4999     0.0000	C.2	1	noname	-0.0178
51	C41     3.3981     3.8735     0.0000	C.2	1	noname	-0.0092
52	Cl1     4.6439     4.7786     0.0000	Cl	1	noname	-0.0848
53	C42     3.5591     2.3419     0.0000	C.2	1	noname	-0.0178
54	C43     2.3132     1.4367     0.0000	C.2	1	noname	-0.0194
55	H1     0.3640    -3.4969     0.0000	H	1	noname	0.0651
56	H2     6.1600    -2.6674     0.0000	H	1	noname	0.0658
57	H3     3.0800    -8.0021     0.0000	H	1	noname	0.0659
58	H4     2.8997    -7.2791     0.0000	H	1	noname	0.0486
59	H5     2.8998    -8.7250     0.0000	H	1	noname	0.0486
60	H6     3.0800   -10.6695     0.0000	H	1	noname	0.0626
61	H7     1.5400   -13.3368     0.0000	H	1	noname	0.0622
62	H8    -1.5400   -13.3368     0.0000	H	1	noname	0.0622
63	H9    -3.0800   -10.6695     0.0000	H	1	noname	0.0625
64	H10    -2.8998    -8.7250     0.0000	H	1	noname	0.0332
65	H11    -3.0537    -7.1251     0.0000	H	1	noname	0.0332
66	H12    -0.5026    -5.1518     0.0000	H	1	noname	0.0489
67	H13    -0.2340    -4.5187     0.0000	H	1	noname	0.0447
68	H14    -1.4863    -3.7957     0.0000	H	1	noname	0.0447
69	H15    -2.5440    -7.4845     0.0000	H	1	noname	0.0454
70	H16    -3.7963    -8.2075     0.0000	H	1	noname	0.0454
71	H17    -5.4438    -8.2075     0.0000	H	1	noname	0.0579
72	H18    -6.6960    -7.4845     0.0000	H	1	noname	0.0579
73	H19    -6.6960    -3.1850     0.0000	H	1	noname	0.0579
74	H20    -5.4438    -2.4620     0.0000	H	1	noname	0.0579
75	H21    -3.7963    -2.4620     0.0000	H	1	noname	0.0454
76	H22    -2.5440    -3.1850     0.0000	H	1	noname	0.0454
77	H23     8.6113    -8.5120     0.0000	H	1	noname	0.0892
78	H24     9.3673    -7.2026     0.0000	H	1	noname	0.0892
79	H25     1.3879     1.6489     0.0000	H	1	noname	0.0329
80	H26     2.3555     2.7235     0.0000	H	1	noname	0.0329
81	H27     3.9222     3.2326     0.0000	H	1	noname	0.0271
82	H28     5.3366     2.9320     0.0000	H	1	noname	0.0271
83	H29     6.5610     1.8295     0.0000	H	1	noname	0.0283
84	H30     7.0079     0.4543     0.0000	H	1	noname	0.0283
85	H31     6.6653    -1.1571     0.0000	H	1	noname	0.0472
86	H32     5.6978    -2.2317     0.0000	H	1	noname	0.0472
87	H33    -1.1236     3.7590     0.0000	H	1	noname	0.0640
88	H34    -3.4753     5.4738     0.0000	H	1	noname	0.0650
89	H35    -6.1280     5.1949     0.0000	H	1	noname	0.2181
90	H36    -5.6451     0.6003     0.0000	H	1	noname	0.0650
91	H37    -2.8314    -0.6524     0.0000	H	1	noname	0.0640
92	H38    -0.6615     4.2210     0.0000	H	1	noname	0.0640
93	H39     1.8302     6.0315     0.0000	H	1	noname	0.0638
94	H40     4.9659     1.7156     0.0000	H	1	noname	0.0638
95	H41     2.1662     0.2132     0.0000	H	1	noname	0.0640
@<TRIPOS>BOND
1	1	2	2
2	2	3	1
3	3	4	1
4	4	5	2
5	5	6	1
6	6	7	2
7	7	8	1
8	8	9	2
9	9	10	1
10	10	11	2
11	11	12	1
12	12	13	2
13	12	14	1
14	14	15	1
15	15	16	1
16	16	17	2
17	17	18	1
18	18	19	2
19	19	20	1
20	20	21	2
21	21	22	1
22	22	23	1
23	23	24	1
24	24	25	1
25	25	26	1
26	26	27	1
27	27	28	1
28	28	29	1
29	29	30	1
30	9	31	1
31	31	32	1
32	32	33	1
33	5	34	1
34	34	35	1
35	35	36	1
36	36	37	1
37	37	38	1
38	38	39	1
39	2	40	1
40	40	41	1
41	41	42	2
42	42	43	1
43	43	44	2
44	44	45	1
45	44	46	1
46	46	47	2
47	40	48	1
48	48	49	2
49	49	50	1
50	50	51	2
51	51	52	1
52	51	53	1
53	53	54	2
54	35	3	2
55	47	41	1
56	54	48	1
57	11	6	1
58	23	14	1
59	30	25	1
60	39	34	1
61	33	8	1
62	21	16	1
63	4	55	1
64	7	56	1
65	10	57	1
66	15	58	1
67	15	59	1
68	17	60	1
69	18	61	1
70	19	62	1
71	20	63	1
72	22	64	1
73	22	65	1
74	23	66	1
75	24	67	1
76	24	68	1
77	26	69	1
78	26	70	1
79	27	71	1
80	27	72	1
81	29	73	1
82	29	74	1
83	30	75	1
84	30	76	1
85	32	77	1
86	32	78	1
87	36	79	1
88	36	80	1
89	37	81	1
90	37	82	1
91	38	83	1
92	38	84	1
93	39	85	1
94	39	86	1
95	42	87	1
96	43	88	1
97	45	89	1
98	46	90	1
99	47	91	1
100	49	92	1
101	50	93	1
102	53	94	1
103	54	95	1
@<TRIPOS>SUBSTRUCTURE
1	noname	1
@<TRIPOS>MOLECULE

53 56 1
SMALL
USER_CHARGES
@<TRIPOS>ATOM
1	C1    -4.9497    -4.7008     0.0000	C.3	1	noname	-0.0486
2	C2    -6.0941    -3.6704     0.0000	C.3	1	noname	0.0590
3	S1    -5.7739    -2.1640     0.0000	S	1	noname	-0.0337
4	O1    -4.2676    -2.4842     0.0000	O.2	1	noname	-0.1963
5	O2    -7.2802    -1.8438     0.0000	O.2	1	noname	-0.1963
6	C3    -5.4537    -0.6577     0.0000	C.2	1	noname	0.0045
7	C4    -6.5982     0.3728     0.0000	C.2	1	noname	0.0239
8	C5    -6.2780     1.8791     0.0000	C.2	1	noname	-0.0024
9	C6    -4.8134     2.3551     0.0000	C.2	1	noname	0.0458
10	O3    -4.4931     3.8614     0.0000	O.3	1	noname	-0.2657
11	C7    -5.6377     4.8919     0.0000	C.3	1	noname	0.0659
12	C8    -5.3175     6.3982     0.0000	C.3	1	noname	-0.0170
13	C9    -6.4619     7.4287     0.0000	C.3	1	noname	-0.0042
14	S2    -7.9265     6.9528     0.0000	S.3	1	noname	-0.1617
15	C10    -8.2468     5.4465     0.0000	C.3	1	noname	-0.0042
16	C11    -7.1022     4.4160     0.0000	C.3	1	noname	-0.0170
17	C12    -3.6689     1.3246     0.0000	C.2	1	noname	0.0135
18	C13    -2.2043     1.8005     0.0000	C.2	1	noname	-0.0043
19	C14    -1.8840     3.3068     0.0000	C.2	1	noname	-0.0648
20	N1    -0.4195     3.7827     0.0000	N.3	1	noname	0.0193
21	C15    -0.0993     5.2891     0.0000	C.3	1	noname	-0.0008
22	C16     0.7250     2.7522     0.0000	C.2	1	noname	0.0383
23	O4     2.1897     3.2282     0.0000	O.2	1	noname	-0.2850
24	C17     0.4048     1.2459     0.0000	C.2	1	noname	-0.0512
25	N2     1.3100     0.0000     0.0000	N.3	1	noname	-0.0343
26	C18     0.4048    -1.2459     0.0000	C.2	1	noname	-0.0893
27	C19    -1.0598    -0.7700     0.0000	C.2	1	noname	-0.0245
28	C20    -1.0598     0.7700     0.0000	C.2	1	noname	0.0094
29	C21    -3.9891    -0.1818     0.0000	C.2	1	noname	0.0363
30	H1    -5.9802    -5.8453     0.0000	H	1	noname	0.0243
31	H2    -3.8053    -5.7313     0.0000	H	1	noname	0.0243
32	H3    -3.9192    -3.5564     0.0000	H	1	noname	0.0243
33	H4    -7.1639    -4.7781     0.0000	H	1	noname	0.0464
34	H5    -7.6107    -3.4029     0.0000	H	1	noname	0.0464
35	H6    -8.0629    -0.1031     0.0000	H	1	noname	0.0639
36	H7    -7.4225     2.9096     0.0000	H	1	noname	0.0650
37	H8    -4.0986     4.8381     0.0000	H	1	noname	0.0609
38	H9    -3.8009     6.1308     0.0000	H	1	noname	0.0301
39	H10    -4.2477     7.5060     0.0000	H	1	noname	0.0301
40	H11    -5.4720     8.6084     0.0000	H	1	noname	0.0381
41	H12    -6.8863     8.9091     0.0000	H	1	noname	0.0381
42	H13    -9.7634     5.7139     0.0000	H	1	noname	0.0381
43	H14    -9.3165     4.3387     0.0000	H	1	noname	0.0381
44	H15    -8.0921     3.2363     0.0000	H	1	noname	0.0301
45	H16    -6.6777     2.9357     0.0000	H	1	noname	0.0301
46	H17    -3.0285     4.3373     0.0000	H	1	noname	0.0763
47	H18     1.4071     4.9689     0.0000	H	1	noname	0.0403
48	H19     0.2209     6.7955     0.0000	H	1	noname	0.0403
49	H20    -1.6056     5.6093     0.0000	H	1	noname	0.0403
50	H21     2.8500     0.0000     0.0000	H	1	noname	0.1523
51	H22     0.8807    -2.7105     0.0000	H	1	noname	0.0789
52	H23    -2.3057    -1.6752     0.0000	H	1	noname	0.0643
53	H24    -2.8447    -1.2123     0.0000	H	1	noname	0.0646
@<TRIPOS>BOND
1	1	2	1
2	2	3	1
3	3	4	2
4	3	5	2
5	3	6	1
6	6	7	2
7	7	8	1
8	8	9	2
9	9	10	1
10	10	11	1
11	11	12	1
12	12	13	1
13	13	14	1
14	14	15	1
15	15	16	1
16	9	17	1
17	17	18	1
18	18	19	2
19	19	20	1
20	20	21	1
21	20	22	1
22	22	23	2
23	22	24	1
24	24	25	1
25	25	26	1
26	26	27	2
27	27	28	1
28	17	29	2
29	29	6	1
30	16	11	1
31	28	18	1
32	28	24	2
33	1	30	1
34	1	31	1
35	1	32	1
36	2	33	1
37	2	34	1
38	7	35	1
39	8	36	1
40	11	37	1
41	12	38	1
42	12	39	1
43	13	40	1
44	13	41	1
45	15	42	1
46	15	43	1
47	16	44	1
48	16	45	1
49	19	46	1
50	21	47	1
51	21	48	1
52	21	49	1
53	25	50	1
54	26	51	1
55	27	52	1
56	29	53	1
@<TRIPOS>SUBSTRUCTURE
1	noname	1
@<TRIPOS>MOLECULE

50 52 1
SMALL
USER_CHARGES
@<TRIPOS>ATOM
1	C1     3.0800     0.0000     0.0000	C.3	1	noname	0.0005
2	C2     1.5400     0.0000     0.0000	C.2	1	noname	-0.0454
3	C3     0.7700    -1.3336     0.0000	C.2	1	noname	-0.0492
4	C4    -0.7700    -1.3336     0.0000	C.2	1	noname	-0.0175
5	C5    -1.5400     0.0000     0.0000	C.2	1	noname	0.0016
6	O1    -3.0800     0.0000     0.0000	O.3	1	noname	-0.1501
7	C6    -3.8500     1.3336     0.0000	C.2	1	noname	0.0631
8	O2    -3.0800     2.6674     0.0000	O.2	1	noname	-0.2493
9	N1    -5.3900     1.3336     0.0000	N.3	1	noname	-0.0329
10	C7    -6.1600     2.6674     0.0000	C.3	1	noname	0.0163
11	C8    -5.3900     4.0010     0.0000	C.3	1	noname	-0.0372
12	C9    -6.1600     5.3348     0.0000	C.3	1	noname	-0.0518
13	C10    -7.7000     5.3348     0.0000	C.3	1	noname	-0.0532
14	C11    -8.4700     4.0010     0.0000	C.3	1	noname	-0.0518
15	C12    -7.7000     2.6674     0.0000	C.3	1	noname	-0.0372
16	C13    -0.7700     1.3336     0.0000	C.2	1	noname	-0.0049
17	C14     0.7700     1.3336     0.0000	C.2	1	noname	-0.0329
18	C15     1.5400     2.6674     0.0000	C.2	1	noname	-0.0252
19	C16     3.0800     2.6674     0.0000	C.2	1	noname	-0.0310
20	C17     3.8500     4.0010     0.0000	C.2	1	noname	-0.0421
21	C18     3.0800     5.3348     0.0000	C.2	1	noname	-0.0175
22	C19     1.5400     5.3348     0.0000	C.2	1	noname	-0.0072
23	C20     0.7700     6.6684     0.0000	C.2	1	noname	0.0080
24	N2     1.5400     8.0020     0.0000	N.3	1	noname	-0.0882
25	O3    -0.7700     6.6684     0.0000	O.2	1	noname	-0.2976
26	C21     0.7700     4.0010     0.0000	C.2	1	noname	-0.0048
27	H1     3.0800    -1.5400     0.0000	H	1	noname	0.0280
28	H2     4.6200    -0.0000     0.0000	H	1	noname	0.0280
29	H3     3.0800     1.5400     0.0000	H	1	noname	0.0280
30	H4     1.5400    -2.6673     0.0000	H	1	noname	0.0626
31	H5    -1.5400    -2.6673     0.0000	H	1	noname	0.0650
32	H6    -6.1600    -0.0000     0.0000	H	1	noname	0.1337
33	H7    -4.7129     2.1407     0.0000	H	1	noname	0.0470
34	H8    -4.0303     3.2780     0.0000	H	1	noname	0.0282
35	H9    -4.0302     4.7240     0.0000	H	1	noname	0.0282
36	H10    -4.8540     6.1508     0.0000	H	1	noname	0.0267
37	H11    -6.1062     6.8738     0.0000	H	1	noname	0.0267
38	H12    -7.7538     6.8738     0.0000	H	1	noname	0.0266
39	H13    -9.0060     6.1508     0.0000	H	1	noname	0.0266
40	H14    -9.8298     4.7240     0.0000	H	1	noname	0.0267
41	H15    -9.8297     3.2780     0.0000	H	1	noname	0.0267
42	H16    -9.0060     1.8513     0.0000	H	1	noname	0.0282
43	H17    -7.7537     1.1283     0.0000	H	1	noname	0.0282
44	H18    -1.5400     2.6673     0.0000	H	1	noname	0.0656
45	H19     4.2244     1.6369     0.0000	H	1	noname	0.0629
46	H20     5.3900     4.0010     0.0000	H	1	noname	0.0623
47	H21     3.8500     6.6684     0.0000	H	1	noname	0.0630
48	H22     3.0800     8.0020     0.0000	H	1	noname	0.1274
49	H23     0.7700     9.3357     0.0000	H	1	noname	0.1274
50	H24    -0.7700     4.0010     0.0000	H	1	noname	0.0637
@<TRIPOS>BOND
1	1	2	1
2	2	3	2
3	3	4	1
4	4	5	2
5	5	6	1
6	6	7	1
7	7	8	2
8	7	9	1
9	9	10	1
10	10	11	1
11	11	12	1
12	12	13	1
13	13	14	1
14	14	15	1
15	5	16	1
16	16	17	2
17	17	18	1
18	18	19	2
19	19	20	1
20	20	21	2
21	21	22	1
22	22	23	1
23	23	24	1
24	23	25	2
25	22	26	2
26	17	2	1
27	26	18	1
28	15	10	1
29	1	27	1
30	1	28	1
31	1	29	1
32	3	30	1
33	4	31	1
34	9	32	1
35	10	33	1
36	11	34	1
37	11	35	1
38	12	36	1
39	12	37	1
40	13	38	1
41	13	39	1
42	14	40	1
43	14	41	1
44	15	42	1
45	15	43	1
46	16	44	1
47	19	45	1
48	20	46	1
49	21	47	1
50	24	48	1
51	24	49	1
52	26	50	1
@<TRIPOS>SUBSTRUCTURE
1	noname	1
