
 OpenBabel01182309123D

 35 36  0  0  1  0  0  0  0  0999 V2000
   -4.9710   20.6290   28.3210 C   0  0  0  0  0  0  0  0  0  0  0  0
   -5.7030   19.3720   27.9780 C   0  0  0  0  0  0  0  0  0  0  0  0
   -6.0310   19.4480   26.5520 C   0  0  0  0  0  0  0  0  0  0  0  0
   -4.7080   18.1400   28.2960 C   0  0  0  0  0  0  0  0  0  0  0  0
   -6.8910   19.1860   28.7660 O   0  0  0  0  0  0  0  0  0  0  0  0
   -7.6720   18.1070   28.6020 C   0  0  0  0  0  0  0  0  0  0  0  0
   -8.6990   17.9650   29.1850 O   0  0  0  0  0  0  0  0  0  0  0  0
   -7.2640   17.2320   27.6920 N   0  0  0  0  0  0  0  0  0  0  0  0
   -7.8500   15.8560   27.4480 C   0  0  2  0  0  0  0  0  0  0  0  0
   -7.2310   15.1570   26.1490 C   0  0  0  0  0  0  0  0  0  0  0  0
   -9.3370   15.7510   27.6250 C   0  0  0  0  0  0  0  0  0  0  0  0
  -10.2120   16.6620   27.0730 C   0  0  0  0  0  0  0  0  0  0  0  0
  -11.5550   16.6570   27.3620 C   0  0  0  0  0  0  0  0  0  0  0  0
  -12.1250   15.6390   28.0710 C   0  0  0  0  0  0  0  0  0  0  0  0
  -11.2190   14.6730   28.5210 C   0  0  0  0  0  0  0  0  0  0  0  0
   -9.9400   14.6810   28.2640 C   0  0  0  0  0  0  0  0  0  0  0  0
   -6.2020   15.4370   25.6270 O   0  0  0  0  0  0  0  0  0  0  0  0
   -8.0640   14.1620   25.3650 C   0  0  0  0  0  0  0  0  0  0  0  0
   -4.6420   18.7400   22.8590 C   0  0  0  0  0  0  0  0  0  0  0  0
   -6.1450   18.9340   22.7410 C   0  0  0  0  0  0  0  0  0  0  0  0
   -6.2620   20.4790   22.8720 C   0  0  0  0  0  0  0  0  0  0  0  0
   -6.6640   18.3500   21.4420 C   0  0  0  0  0  0  0  0  0  0  0  0
   -6.7670   18.2530   23.8140 O   0  0  0  0  0  0  0  0  0  0  0  0
   -7.5140   17.1430   23.7990 C   0  0  0  0  0  0  0  0  0  0  0  0
   -8.5530   17.0750   24.4070 O   0  0  0  0  0  0  0  0  0  0  0  0
   -7.0250   16.0960   23.0940 N   0  0  0  0  0  0  0  0  0  0  0  0
   -7.7900   14.8760   22.7770 C   0  0  1  0  0  0  0  0  0  0  0  0
   -7.6900   13.8740   23.9170 C   0  0  0  0  0  0  0  0  0  0  0  0
   -9.1890   15.3210   22.4480 C   0  0  0  0  0  0  0  0  0  0  0  0
  -10.2010   15.2690   23.3240 C   0  0  0  0  0  0  0  0  0  0  0  0
  -11.4590   15.5890   23.0040 C   0  0  0  0  0  0  0  0  0  0  0  0
  -11.6930   16.1180   21.7850 C   0  0  0  0  0  0  0  0  0  0  0  0
  -10.6290   16.3630   20.9760 C   0  0  0  0  0  0  0  0  0  0  0  0
   -9.4350   15.9840   21.3230 C   0  0  0  0  0  0  0  0  0  0  0  0
   -7.3270   12.7610   23.6350 O   0  0  0  0  0  0  0  0  0  0  0  0
  2  4  1  0  0  0  0
  2  1  1  0  0  0  0
  2  5  1  0  0  0  0
  3  2  1  0  0  0  0
  6  5  1  0  0  0  0
  6  7  2  0  0  0  0
  8  6  1  0  0  0  0
  9 10  1  6  0  0  0
  9 11  1  0  0  0  0
  9  8  1  0  0  0  0
 11 16  1  0  0  0  0
 12 13  1  0  0  0  0
 12 11  2  0  0  0  0
 13 14  2  0  0  0  0
 14 15  1  0  0  0  0
 16 15  2  0  0  0  0
 17 10  2  0  0  0  0
 18 10  1  0  0  0  0
 20 19  1  0  0  0  0
 20 21  1  0  0  0  0
 20 23  1  0  0  0  0
 22 20  1  0  0  0  0
 24 23  1  0  0  0  0
 24 25  2  0  0  0  0
 26 24  1  0  0  0  0
 27 26  1  1  0  0  0
 27 28  1  0  0  0  0
 28 18  1  0  0  0  0
 29 27  1  0  0  0  0
 29 30  1  0  0  0  0
 31 30  2  0  0  0  0
 32 31  1  0  0  0  0
 33 34  1  0  0  0  0
 33 32  2  0  0  0  0
 34 29  2  0  0  0  0
 35 28  2  0  0  0  0
M  END
