@<TRIPOS>MOLECULE
****
76 78 1 0 0
SMALL
USER_CHARGES


@<TRIPOS>ATOM
      1 C           3.7238   -3.1943    2.9005 C.ar      1     ****    0.0000
      2 C           4.0312   -3.5007    4.1705 C.ar      1     ****    0.0000
      3 C           4.2392   -2.5231    5.0654 C.ar      1     ****    0.0000
      4 C           4.1383   -1.2414    4.6822 C.ar      1     ****    0.0000
      5 C           3.8307   -0.9428    3.4104 C.ar      1     ****    0.0000
      6 C           3.6185   -1.9135    2.5035 C.ar      1     ****    0.0000
      7 C           3.2634   -1.5751    1.0707 C.3       1     ****    0.0000
      8 C           1.7505   -1.7554    0.8028 C.3       1     ****    0.0000
      9 N           1.3073   -1.3134   -0.5317 N.am      1     ****    0.0000
     10 C           0.2637   -1.8825   -1.2064 C.2       1     ****    0.0000
     11 O           0.0044   -1.3433   -2.4264 O.3       1     ****    0.0000
     12 O          -0.3617   -2.7914   -0.7167 O.2       1     ****    0.0000
     13 C          -0.9324   -1.8812   -3.3095 C.3       1     ****    0.0000
     14 C          -0.7962   -1.0604   -4.6031 C.3       1     ****    0.0000
     15 C          -0.6318   -3.3506   -3.6349 C.3       1     ****    0.0000
     16 C          -2.3587   -1.7076   -2.7723 C.3       1     ****    0.0000
     17 C           0.7617   -1.6259    1.9810 C.2       1     ****    0.0000
     18 C           0.9037    0.0299    1.6563 C.3       1     ****    0.0000
     19 C          -0.3507    0.7000    1.0181 C.3       1     ****    0.0000
     20 O           0.0068   -1.2778    2.8640 O.2       1     ****    0.0000
     21 C          -1.5491    0.9659    1.9597 C.3       1     ****    0.0000
     22 C          -2.5632   -0.1613    2.0014 C.ar      1     ****    0.0000
     23 C          -3.1848   -0.5636    0.8772 C.ar      1     ****    0.0000
     24 C          -4.0758   -1.5667    0.8979 C.ar      1     ****    0.0000
     25 C          -4.3690   -2.1779    2.0554 C.ar      1     ****    0.0000
     26 C          -3.7738   -1.7750    3.1882 C.ar      1     ****    0.0000
     27 C          -2.8826   -0.7720    3.1575 C.ar      1     ****    0.0000
     28 C          -0.0137    1.9980    0.2785 C.2       1     ****    0.0000
     29 O           1.0078    2.6124    0.4526 O.2       1     ****    0.0000
     30 C          -0.8899    3.5789   -1.4677 C.3       1     ****    0.0000
     31 C          -1.4603    4.8371   -0.7871 C.3       1     ****    0.0000
     32 C          -0.7218    5.2805    0.4819 C.3       1     ****    0.0000
     33 C           0.4741    3.7937   -2.1556 C.3       1     ****    0.0000
     34 N           0.9729    2.5287   -2.7580 N.2       1     ****    0.0000
     35 C           1.1104    2.7718   -3.9884 C.2       1     ****    0.0000
     36 C           0.7747    4.0252   -4.3144 C.2       1     ****    0.0000
     37 N           0.3859    4.7055   -3.3249 N.2       1     ****    0.0000
     38 N          -0.9816    2.3880   -0.6088 N.am      1     ****    0.0000
     39 H           3.5528   -4.0069    2.1757 H         1     ****    0.0000
     40 H           4.1118   -4.5560    4.4799 H         1     ****    0.0000
     41 H           4.4912   -2.7706    6.1103 H         1     ****    0.0000
     42 H           4.3069   -0.4316    5.4121 H         1     ****    0.0000
     43 H           3.7494    0.1165    3.1146 H         1     ****    0.0000
     44 H           3.6177   -0.5513    0.8168 H         1     ****    0.0000
     45 H           3.8526   -2.2282    0.3831 H         1     ****    0.0000
     46 H           1.6980   -2.8785    0.7492 H         1     ****    0.0000
     47 H           1.7555   -0.5134   -0.9763 H         1     ****    0.0000
     48 H          -1.5171   -1.3967   -5.3824 H         1     ****    0.0000
     49 H          -0.9851    0.0219   -4.4169 H         1     ****    0.0000
     50 H           0.2276   -1.1508   -5.0328 H         1     ****    0.0000
     51 H          -1.2602   -3.7046   -4.4834 H         1     ****    0.0000
     52 H          -0.8439   -4.0457   -2.7950 H         1     ****    0.0000
     53 H           0.4336   -3.4876   -3.9293 H         1     ****    0.0000
     54 H          -2.5649   -0.6434   -2.5171 H         1     ****    0.0000
     55 H          -3.1096   -2.0208   -3.5325 H         1     ****    0.0000
     56 H          -2.5626   -2.3164   -1.8656 H         1     ****    0.0000
     57 H           1.1823    0.6012    2.5798 H         1     ****    0.0000
     58 H           1.7730    0.3581    1.0514 H         1     ****    0.0000
     59 H          -0.6872    0.0280    0.1952 H         1     ****    0.0000
     60 H          -1.1762    1.2408    2.9717 H         1     ****    0.0000
     61 H          -2.1264    1.8609    1.6266 H         1     ****    0.0000
     62 H          -2.9677   -0.0683   -0.0833 H         1     ****    0.0000
     63 H          -4.5690   -1.8863   -0.0357 H         1     ****    0.0000
     64 H          -5.1012   -3.0021    2.0771 H         1     ****    0.0000
     65 H          -4.0179   -2.2690    4.1442 H         1     ****    0.0000
     66 H          -2.4055   -0.4540    4.0996 H         1     ****    0.0000
     67 H          -1.5916    3.3427   -2.3107 H         1     ****    0.0000
     68 H          -2.5284    4.6467   -0.5191 H         1     ****    0.0000
     69 H          -1.4594    5.6817   -1.5172 H         1     ****    0.0000
     70 H          -1.1727    6.2122    0.8948 H         1     ****    0.0000
     71 H           0.3516    5.4938    0.2816 H         1     ****    0.0000
     72 H          -0.7834    4.5097    1.2824 H         1     ****    0.0000
     73 H           1.2576    4.2058   -1.4824 H         1     ****    0.0000
     74 H           1.4666    2.0052   -4.6896 H         1     ****    0.0000
     75 H           0.8139    4.4514   -5.3258 H         1     ****    0.0000
     76 H          -1.8502    1.8520   -0.6171 H         1     ****    0.0000
@<TRIPOS>BOND
     1     1     2     1
     2     1     6     2
     3     1    39     1
     4     2     3     2
     5     2    40     1
     6     3     4     1
     7     3    41     1
     8     4     5     2
     9     4    42     1
    10     5     6     1
    11     5    43     1
    12     6     7     1
    13     7     8     1
    14     7    44     1
    15     7    45     1
    16     8     9     1
    17     8    17     1
    18     8    46     1
    19     9    10     1
    20     9    47     1
    21    10    11     1
    22    10    12     2
    23    11    13     1
    24    13    14     1
    25    13    15     1
    26    13    16     1
    27    14    48     1
    28    14    49     1
    29    14    50     1
    30    15    51     1
    31    15    52     1
    32    15    53     1
    33    16    54     1
    34    16    55     1
    35    16    56     1
    36    17    18     1
    37    17    20     2
    38    18    19     1
    39    18    57     1
    40    18    58     1
    41    19    21     1
    42    19    28     1
    43    19    59     1
    44    21    22     1
    45    21    60     1
    46    21    61     1
    47    22    23     1
    48    22    27     2
    49    23    24     2
    50    23    62     1
    51    24    25     1
    52    24    63     1
    53    25    26     2
    54    25    64     1
    55    26    27     1
    56    26    65     1
    57    27    66     1
    58    28    29     2
    59    28    38     1
    60    30    31     1
    61    30    33     1
    62    30    38     1
    63    30    67     1
    64    31    32     1
    65    31    68     1
    66    31    69     1
    67    32    70     1
    68    32    71     1
    69    32    72     1
    70    33    34     1
    71    33    37     1
    72    33    73     1
    73    34    35     2
    74    35    36     1
    75    35    74     1
    76    36    37     2
    77    36    75     1
    78    38    76     1
