
  Accelrys05311914342D 1   1.00000     0.00000     0

 18 19  0     0  0            999 V2000
    2.9291   -5.8667    0.0000 C   0  0  2  0  0  0           0  0  0
    3.7541   -5.8667    0.0000 C   0  0  2  0  0  0           0  0  0
    4.0109   -5.0826    0.0000 O   0  0  0  0  0  0           0  0  0
    3.3416   -4.5958    0.0000 C   0  0  2  0  0  0           0  0  0
    2.6766   -5.0826    0.0000 C   0  0  0  0  0  0           0  0  0
    3.3404   -3.7708    0.0000 N   0  0  3  0  0  0           0  0  0
    4.2383   -6.5347    0.0000 O   0  0  0  0  0  0           0  0  0
    2.4433   -6.5335    0.0000 N   0  0  0  0  0  0           0  0  0
    1.6229   -6.4464    0.0000 N   0  3  0  0  0  0           0  0  0
    5.0589   -6.4494    0.0000 C   0  0  0  0  0  0           0  0  0
    0.7983   -6.3826    0.0000 N   0  5  0  0  0  0           0  0  0
    4.0576   -3.3612    0.0000 C   0  0  0  0  0  0           0  0  0
    4.0583   -2.5398    0.0000 C   0  0  0  0  0  0           0  0  0
    3.3451   -2.1245    0.0000 C   0  0  0  0  0  0           0  0  0
    2.6294   -2.5369    0.0000 N   0  0  0  0  0  0           0  0  0
    2.6270   -3.3645    0.0000 C   0  0  0  0  0  0           0  0  0
    3.3469   -1.2995    0.0000 O   0  0  0  0  0  0           0  0  0
    1.9131   -3.7781    0.0000 O   0  0  0  0  0  0           0  0  0
  8  9  2  0     0  0
  4  5  1  0     0  0
  7 10  1  0     0  0
  5  1  1  0     0  0
  9 11  2  0     0  0
  6 12  1  0     0  0
  1  2  1  0     0  0
  4  6  1  6     0  0
  2  7  1  6     0  0
  2  3  1  0     0  0
  6 16  1  0     0  0
 12 13  2  0     0  0
 13 14  1  0     0  0
 14 15  1  0     0  0
 15 16  1  0     0  0
  1  8  1  1     0  0
 14 17  2  0     0  0
  3  4  1  0     0  0
 16 18  2  0     0  0
M  CHG  2   9   1  11  -1
M  END
>  <prID>
1

>  <IDDB>
2

>  <pIC50_HIV_Integrase>
5.173925197

>  <Q>
-2.786928436

>  <Activity_Integrase>
Inactive_Integrase

NA
NA
NA
NA
$$$$

  Accelrys05311914342D 1   1.00000     0.00000     0

 40 44  0     0  0            999 V2000
    7.0949   -1.6172    0.0000 C   0  0  0  0  0  0           0  0  0
    7.0949   -2.7987    0.0000 C   0  0  0  0  0  0           0  0  0
    8.0983   -1.0312    0.0000 C   0  0  0  0  0  0           0  0  0
    6.0719   -1.0215    0.0000 C   0  0  0  0  0  0           0  0  0
    6.0671   -3.3895    0.0000 C   0  0  2  0  0  0           0  0  0
    8.0935   -3.3944    0.0000 C   0  0  0  0  0  0           0  0  0
    9.1212   -1.6220    0.0000 C   0  0  0  0  0  0           0  0  0
    8.0983    0.1454    0.0000 O   0  0  0  0  0  0           0  0  0
    5.0492   -1.6123    0.0000 C   0  0  2  0  0  0           0  0  0
    5.0492   -2.7939    0.0000 C   0  0  0  0  0  0           0  0  0
    6.0671   -4.5564    0.0000 O   0  0  0  0  0  0           0  0  0
    9.1212   -2.8036    0.0000 C   0  0  0  0  0  0           0  0  0
    8.0935   -4.5516    0.0000 O   0  0  0  0  0  0           0  0  0
   10.1490   -1.0360    0.0000 C   0  0  0  0  0  0           0  0  0
    4.8574   -0.6429    0.0000 C   0  0  0  0  0  0           0  0  0
    3.9736   -2.0162    0.0000 O   0  0  0  0  0  0           0  0  0
    5.0540   -5.1326    0.0000 C   0  0  1  0  0  0           0  0  0
   10.1442   -3.3992    0.0000 C   0  0  0  0  0  0           0  0  0
   11.1671   -1.6269    0.0000 C   0  0  0  0  0  0           0  0  0
   10.1490    0.1406    0.0000 O   0  0  0  0  0  0           0  0  0
    3.6952   -0.4269    0.0000 C   0  0  0  0  0  0           0  0  0
    5.7546    0.1212    0.0000 O   0  0  0  0  0  0           0  0  0
    5.0540   -6.2995    0.0000 C   0  0  0  0  0  0           0  0  0
    4.0456   -4.5466    0.0000 O   0  0  0  0  0  0           0  0  0
   11.1671   -2.8084    0.0000 C   0  0  0  0  0  0           0  0  0
   10.1442   -4.5564    0.0000 O   0  0  0  0  0  0           0  0  0
   12.1948   -1.0410    0.0000 C   0  0  0  0  0  0           0  0  0
    2.9020   -1.2667    0.0000 O   0  0  0  0  0  0           0  0  0
    4.0359   -6.8806    0.0000 C   0  0  1  0  0  0           0  0  0
    3.0275   -5.1229    0.0000 C   0  0  2  0  0  0           0  0  0
   12.1900   -3.4041    0.0000 C   0  0  0  0  0  0           0  0  0
   13.2129   -1.6318    0.0000 C   0  0  0  0  0  0           0  0  0
    3.0275   -6.2898    0.0000 C   0  0  1  0  0  0           0  0  0
    4.0359   -8.0524    0.0000 N   0  0  0  0  0  0           0  0  0
    2.0194   -4.5369    0.0000 C   0  0  0  0  0  0           0  0  0
   13.2129   -2.8133    0.0000 C   0  0  0  0  0  0           0  0  0
   12.1900   -4.5613    0.0000 O   0  0  0  0  0  0           0  0  0
    2.0096   -6.8708    0.0000 O   0  0  0  0  0  0           0  0  0
   13.5273   -5.2012    0.0000 C   0  0  0  0  0  0           0  0  0
    5.0685   -3.8985    0.0000 H   0  0  0  0  0  0           0  0  0
  1  2  2  0     0  0
  1  3  1  0     0  0
  1  4  1  0     0  0
  2  5  1  0     0  0
  2  6  1  0     0  0
  3  7  2  0     0  0
  3  8  1  0     0  0
  4  9  1  0     0  0
  5 10  1  0     0  0
  5 11  1  0     0  0
  6 12  2  0     0  0
  6 13  1  0     0  0
  7 14  1  0     0  0
  9 15  1  0     0  0
  9 16  1  1     0  0
 17 11  1  1     0  0
 12 18  1  0     0  0
 14 19  1  0     0  0
 14 20  2  0     0  0
 15 21  1  0     0  0
 15 22  2  0     0  0
 17 23  1  0     0  0
 17 24  1  0     0  0
 18 25  1  0     0  0
 18 26  2  0     0  0
 19 27  2  0     0  0
 21 28  1  0     0  0
 23 29  1  0     0  0
 24 30  1  0     0  0
 25 31  2  0     0  0
 27 32  1  0     0  0
 29 33  1  0     0  0
 29 34  1  6     0  0
 30 35  1  6     0  0
 31 36  1  0     0  0
 31 37  1  0     0  0
 33 38  1  6     0  0
 37 39  1  0     0  0
  7 12  1  0     0  0
  9 10  1  0     0  0
 19 25  1  0     0  0
 30 33  1  0     0  0
 32 36  2  0     0  0
  5 40  1  6     0  0
M  END
>  <prID>
2

>  <IDDB>
122

>  <pIC50_HIV_Integrase>
5.619788758

>  <Q>
-7.833948386

>  <Activity_Integrase>
Inactive_Integrase

NA
NA
NA
NA
$$$$

  Accelrys05311914342D 1   1.00000     0.00000     0

 23 24  0     0  0            999 V2000
    6.6157   -0.0625    0.0000 C   0  0  0  0  0  0           0  0  0
    6.6157   -0.8875    0.0000 C   0  0  0  0  0  0           0  0  0
    5.9037   -1.2958    0.0000 N   0  0  3  0  0  0           0  0  0
    5.1917   -0.8875    0.0000 C   0  0  0  0  0  0           0  0  0
    5.1917   -0.0625    0.0000 N   0  0  0  0  0  0           0  0  0
    5.9037    0.3542    0.0000 C   0  0  0  0  0  0           0  0  0
    5.9115    1.1792    0.0000 O   0  0  0  0  0  0           0  0  0
    4.4824   -1.3000    0.0000 O   0  0  0  0  0  0           0  0  0
    7.3282    0.3542    0.0000 C   0  0  0  0  0  0           0  0  0
    5.9083   -2.7792    0.0000 C   0  0  1  0  0  0           0  0  0
    4.7916   -3.4959    0.0000 C   0  0  1  0  0  0           0  0  0
    5.5375   -3.4959    0.0000 C   0  0  0  0  0  0           0  0  0
    5.2000   -2.2125    0.0000 O   0  0  0  0  0  0           0  0  0
    4.4224   -2.7826    0.0000 C   0  0  2  0  0  0           0  0  0
    4.0042   -2.0625    0.0000 C   0  0  0  0  0  0           0  0  0
    3.1792   -2.0583    0.0000 O   0  0  0  0  0  0           0  0  0
    2.3542   -2.0583    0.0000 P   0  0  3  0  0  0           0  0  0
    1.5292   -2.0583    0.0000 O   0  0  0  0  0  0           0  0  0
    2.3500   -1.2333    0.0000 O   0  0  0  0  0  0           0  0  0
    2.3500   -2.8833    0.0000 O   0  0  0  0  0  0           0  0  0
    4.2000   -4.0792    0.0000 N   0  0  0  0  0  0           0  0  0
    3.4958   -4.0875    0.0000 N   0  3  0  0  0  0           0  0  0
    2.7792   -4.0875    0.0000 N   0  5  0  0  0  0           0  0  0
  4  5  1  0     0  0
  5  6  1  0     0  0
 12 10  1  0     0  0
 10 13  1  0     0  0
 13 14  1  0     0  0
 14 11  1  0     0  0
  6  7  2  0     0  0
 14 15  1  1     0  0
  1  2  2  0     0  0
 15 16  1  0     0  0
  4  8  2  0     0  0
 16 17  1  0     0  0
  1  6  1  0     0  0
 17 18  1  0     0  0
  1  9  1  0     0  0
 17 19  2  0     0  0
  2  3  1  0     0  0
 17 20  1  0     0  0
 10  3  1  1     0  0
 11 21  1  6     0  0
 11 12  1  0     0  0
 21 22  2  0     0  0
  3  4  1  0     0  0
 22 23  2  0     0  0
M  CHG  2  22   1  23  -1
M  END
>  <prID>
3

>  <IDDB>
297

>  <pIC50_HIV_Integrase>
3.853871964

>  <Q>
-5.985940038

>  <Activity_Integrase>
Inactive_Integrase

NA
NA
NA
NA
$$$$

  Accelrys05311914342D 1   1.00000     0.00000     0

 22 24  0     0  0            999 V2000
    0.4617   -1.1749    0.0000 C   0  0  0  0  0  0           0  0  0
    0.4617    0.0063    0.0000 C   0  0  0  0  0  0           0  0  0
   -0.5668   -1.7639    0.0000 C   0  0  0  0  0  0           0  0  0
   -1.5729   -1.1749    0.0000 C   0  0  0  0  0  0           0  0  0
   -0.5668    0.5986    0.0000 O   0  0  0  0  0  0           0  0  0
   -1.5729    0.0063    0.0000 C   0  0  0  0  0  0           0  0  0
   -2.5886   -1.7639    0.0000 C   0  0  0  0  0  0           0  0  0
    1.4774    0.5986    0.0000 C   0  0  0  0  0  0           0  0  0
   -2.5886    0.5986    0.0000 C   0  0  0  0  0  0           0  0  0
   -3.6075   -1.1749    0.0000 C   0  0  0  0  0  0           0  0  0
    1.4774    1.7799    0.0000 C   0  0  0  0  0  0           0  0  0
    2.4803    2.3721    0.0000 C   0  0  0  0  0  0           0  0  0
   -0.5668   -2.9484    0.0000 O   0  0  0  0  0  0           0  0  0
   -3.6075    0.0063    0.0000 C   0  0  0  0  0  0           0  0  0
    3.5279    1.7799    0.0000 C   0  0  0  0  0  0           0  0  0
    2.5059    0.0063    0.0000 C   0  0  0  0  0  0           0  0  0
    1.4774   -1.7639    0.0000 O   0  0  0  0  0  0           0  0  0
    3.5279    0.5986    0.0000 C   0  0  0  0  0  0           0  0  0
   -2.5886   -2.9484    0.0000 O   0  0  0  0  0  0           0  0  0
    2.4803    3.4101    0.0000 O   0  0  0  0  0  0           0  0  0
   -4.6328    0.5986    0.0000 O   0  0  0  0  0  0           0  0  0
    4.5691    2.3721    0.0000 O   0  0  0  0  0  0           0  0  0
  2  1  2  0     0  0
  3  1  1  0     0  0
  4  3  1  0     0  0
  5  2  1  0     0  0
  6  5  1  0     0  0
  7  4  1  0     0  0
  8  2  1  0     0  0
  9  6  1  0     0  0
 10  7  2  0     0  0
 11  8  2  0     0  0
 12 11  1  0     0  0
 13  3  2  0     0  0
 14  9  2  0     0  0
 15 18  1  0     0  0
 16  8  1  0     0  0
 17  1  1  0     0  0
 18 16  2  0     0  0
 19  7  1  0     0  0
 20 12  1  0     0  0
 21 14  1  0     0  0
 22 15  1  0     0  0
  6  4  2  0     0  0
 15 12  2  0     0  0
 14 10  1  0     0  0
M  END
>  <prID>
4

>  <IDDB>
487

>  <pIC50_HIV_Integrase>
5.0088643835

>  <Q>
-3.04892917

>  <Activity_Integrase>
Inactive_Integrase

NA
NA
NA
NA
$$$$

  Accelrys05311914342D 1   1.00000     0.00000     0

 20 22  0     0  0            999 V2000
    2.7751   -1.8297    0.0000 C   0  0  0  0  0  0           0  0  0
    3.8049   -2.4236    0.0000 C   0  0  0  0  0  0           0  0  0
    1.7389   -2.4236    0.0000 C   0  0  0  0  0  0           0  0  0
    2.7751   -0.6484    0.0000 C   0  0  0  0  0  0           0  0  0
    4.8472   -1.8297    0.0000 C   0  0  0  0  0  0           0  0  0
    4.8472   -0.6484    0.0000 C   0  0  0  0  0  0           0  0  0
    3.8049   -0.0606    0.0000 O   0  0  0  0  0  0           0  0  0
    0.7089   -1.8297    0.0000 C   0  0  0  0  0  0           0  0  0
    1.7389   -0.0606    0.0000 C   0  0  0  0  0  0           0  0  0
    0.7089   -0.6484    0.0000 C   0  0  0  0  0  0           0  0  0
    3.8049   -3.5384    0.0000 O   0  0  0  0  0  0           0  0  0
    5.8954   -0.0970    0.0000 C   0  0  0  0  0  0           0  0  0
    1.7389   -3.6777    0.0000 O   0  0  0  0  0  0           0  0  0
   -0.6059   -2.6297    0.0000 O   0  0  0  0  0  0           0  0  0
   -0.6059    0.0970    0.0000 O   0  0  0  0  0  0           0  0  0
    5.8954    1.1027    0.0000 C   0  0  0  0  0  0           0  0  0
    6.9496   -0.6786    0.0000 C   0  0  0  0  0  0           0  0  0
    6.9496    1.6845    0.0000 C   0  0  0  0  0  0           0  0  0
    7.9251   -0.0970    0.0000 C   0  0  0  0  0  0           0  0  0
    7.9251    1.1027    0.0000 C   0  0  0  0  0  0           0  0  0
  2  1  1  0     0  0
  3  1  1  0     0  0
  4  1  2  0     0  0
  5  2  1  0     0  0
  6  5  2  0     0  0
  7  4  1  0     0  0
  8  3  2  0     0  0
  9  4  1  0     0  0
 10  8  1  0     0  0
 11  2  2  0     0  0
 12  6  1  0     0  0
 13  3  1  0     0  0
 14  8  1  0     0  0
 15 10  1  0     0  0
 16 12  1  0     0  0
 17 12  2  0     0  0
 18 16  2  0     0  0
 19 17  1  0     0  0
 20 19  2  0     0  0
  6  7  1  0     0  0
 10  9  2  0     0  0
 20 18  1  0     0  0
M  END
>  <prID>
5

>  <IDDB>
731

>  <pIC50_HIV_Integrase>
5.866461092

>  <Q>
-1.391396337

>  <Activity_Integrase>
Inactive_Integrase

NA
NA
NA
NA
$$$$

  Accelrys05311914342D 1   1.00000     0.00000     0

 22 23  0     0  0            999 V2000
   -1.2757   -3.2432    0.0000 C   0  0  0  0  0  0           0  0  0
   -0.2622   -2.6589    0.0000 C   0  0  0  0  0  0           0  0  0
   -2.2951   -2.6589    0.0000 C   0  0  0  0  0  0           0  0  0
    0.8047   -3.2432    0.0000 N   0  0  0  0  0  0           0  0  0
   -3.3087   -3.2432    0.0000 C   0  0  0  0  0  0           0  0  0
   -1.2757   -4.4176    0.0000 C   0  0  0  0  0  0           0  0  0
   -2.2951   -1.4785    0.0000 N   0  0  0  0  0  0           0  0  0
   -3.3087   -4.4176    0.0000 C   0  0  0  0  0  0           0  0  0
   -0.2622   -1.4785    0.0000 C   0  0  0  0  0  0           0  0  0
   -2.2951   -5.0018    0.0000 C   0  0  0  0  0  0           0  0  0
   -1.2757   -0.8823    0.0000 C   0  0  0  0  0  0           0  0  0
    5.9735   -2.6589    0.0000 N   0  0  3  0  0  0           0  0  0
   -4.3579   -5.0018    0.0000 Cl  0  0  0  0  0  0           0  0  0
    1.8302   -2.6589    0.0000 C   0  0  3  0  0  0           0  0  0
    3.8929   -2.6589    0.0000 C   0  0  0  0  0  0           0  0  0
    4.9303   -3.2432    0.0000 C   0  0  0  0  0  0           0  0  0
    6.9811   -3.2432    0.0000 C   0  0  0  0  0  0           0  0  0
    5.9735   -1.4785    0.0000 C   0  0  0  0  0  0           0  0  0
    2.9033   -3.2432    0.0000 C   0  0  0  0  0  0           0  0  0
    1.8302   -1.4785    0.0000 C   0  0  0  0  0  0           0  0  0
    8.0183   -2.6589    0.0000 C   0  0  0  0  0  0           0  0  0
    4.9303   -0.8823    0.0000 C   0  0  0  0  0  0           0  0  0
  9  2  2  0     0  0
 10  6  1  0     0  0
 11  7  2  0     0  0
 12 16  1  0     0  0
 13  8  1  0     0  0
 14  4  1  0     0  0
 15 19  1  0     0  0
 16 15  1  0     0  0
 17 12  1  0     0  0
 18 12  1  0     0  0
 19 14  1  0     0  0
 20 14  1  0     0  0
 21 17  1  0     0  0
 22 18  1  0     0  0
  8  5  1  0     0  0
 11  9  1  0     0  0
  2  1  1  0     0  0
  3  1  1  0     0  0
  4  2  1  0     0  0
  5  3  2  0     0  0
  6  1  2  0     0  0
  7  3  1  0     0  0
  8 10  2  0     0  0
M  END
>  <prID>
6

>  <IDDB>
733

>  <pIC50_HIV_Integrase>
4.610833916

>  <Q>
-2.5090715

>  <Activity_Integrase>
Inactive_Integrase

NA
NA
NA
NA
$$$$

  Accelrys05311914342D 1   1.00000     0.00000     0

 19 21  0     0  0            999 V2000
    7.3167   -3.3333    0.0000 N   0  0  3  0  0  0           0  0  0
    6.6542   -3.1000    0.0000 C   0  0  0  0  0  0           0  0  0
    6.6542   -2.4375    0.0000 C   0  0  0  0  0  0           0  0  0
    7.3167   -4.9416    0.0000 C   0  0  1  0  0  0           0  0  0
    7.3167   -2.3042    0.0000 N   0  0  0  0  0  0           0  0  0
    7.6416   -2.7958    0.0000 C   0  0  0  0  0  0           0  0  0
    7.0042   -5.6375    0.0000 C   0  0  1  0  0  0           0  0  0
    6.4375   -4.4875    0.0000 C   0  0  0  0  0  0           0  0  0
    5.8750   -5.6375    0.0000 C   0  0  2  0  0  0           0  0  0
    5.5000   -4.9416    0.0000 C   0  0  1  0  0  0           0  0  0
    6.0792   -2.1625    0.0000 C   0  0  0  0  0  0           0  0  0
    6.0834   -3.4375    0.0000 N   0  0  0  0  0  0           0  0  0
    5.4709   -2.4375    0.0000 N   0  0  0  0  0  0           0  0  0
    5.4709   -3.1000    0.0000 C   0  0  0  0  0  0           0  0  0
    7.0084   -6.3250    0.0000 O   0  0  0  0  0  0           0  0  0
    6.0792   -1.4542    0.0000 N   0  0  0  0  0  0           0  0  0
    5.0416   -5.5458    0.0000 O   0  0  0  0  0  0           0  0  0
    5.4958   -4.3375    0.0000 C   0  0  0  0  0  0           0  0  0
    4.6334   -4.3375    0.0000 O   0  0  0  0  0  0           0  0  0
  2  1  1  0     0  0
  3  2  2  0     0  0
  4  1  1  1     0  0
  5  6  2  0     0  0
  6  1  1  0     0  0
  7  4  1  0     0  0
  8  4  1  0     0  0
  9  7  1  0     0  0
 10  8  1  0     0  0
 11  3  1  0     0  0
 12  2  1  0     0  0
 13 14  1  0     0  0
 14 12  2  0     0  0
  7 15  1  6     0  0
 16 11  1  0     0  0
  9 17  1  1     0  0
 10 18  1  1     0  0
 19 18  1  0     0  0
  5  3  1  0     0  0
  9 10  1  0     0  0
 13 11  2  0     0  0
M  END
>  <prID>
7

>  <IDDB>
1022

>  <pIC50_HIV_Integrase>
4.48148606

>  <Q>
-4.64719961

>  <Activity_Integrase>
Inactive_Integrase

NA
NA
NA
NA
$$$$

  Accelrys05311914342D 1   1.00000     0.00000     0

 34 37  0     0  0            999 V2000
    1.0989    0.5641    0.0000 C   0  0  2  0  0  0           0  0  0
   -0.9755    0.5641    0.0000 C   0  0  0  0  0  0           0  0  0
    3.1849    0.5641    0.0000 C   0  0  0  0  0  0           0  0  0
    0.0646    1.1459    0.0000 C   0  0  0  0  0  0           0  0  0
    2.1390    1.1459    0.0000 C   0  0  0  0  0  0           0  0  0
    1.0989   -0.6170    0.0000 C   0  0  2  0  0  0           0  0  0
    3.1849   -0.6170    0.0000 C   0  0  0  0  0  0           0  0  0
   -2.0097    1.1459    0.0000 C   0  0  0  0  0  0           0  0  0
   -0.9755   -0.6170    0.0000 C   0  0  1  0  0  0           0  0  0
   -3.0615    0.5641    0.0000 C   0  0  0  0  0  0           0  0  0
   -2.0097   -1.2105    0.0000 C   0  0  1  0  0  0           0  0  0
   -3.0615   -0.6170    0.0000 C   0  0  0  0  0  0           0  0  0
    2.1390   -1.2105    0.0000 C   0  0  1  0  0  0           0  0  0
    0.0646   -1.2105    0.0000 C   0  0  0  0  0  0           0  0  0
    4.2192    1.1459    0.0000 C   0  0  0  0  0  0           0  0  0
    2.1390    2.4387    0.0000 O   0  0  0  0  0  0           0  0  0
   -2.0097    2.0919    0.0000 O   0  0  0  0  0  0           0  0  0
    2.1390   -2.1095    0.0000 N   0  0  3  0  0  0           0  0  0
   -4.0722    1.1459    0.0000 C   0  0  0  0  0  0           0  0  0
    1.0989    1.7041    0.0000 O   0  0  0  0  0  0           0  0  0
    4.1604    2.1448    0.0000 O   0  0  0  0  0  0           0  0  0
    0.0646    2.4387    0.0000 O   0  0  0  0  0  0           0  0  0
    4.0017   -1.2105    0.0000 O   0  0  0  0  0  0           0  0  0
   -2.6560   -2.3505    0.0000 O   0  0  0  0  0  0           0  0  0
    5.1299    0.7874    0.0000 N   0  0  0  0  0  0           0  0  0
   -4.0958   -1.1518    0.0000 C   0  0  0  0  0  0           0  0  0
   -1.1694   -2.3916    0.0000 C   0  0  0  0  0  0           0  0  0
   -4.0722    2.1154    0.0000 O   0  0  0  0  0  0           0  0  0
   -5.1064   -0.6406    0.0000 C   0  0  0  0  0  0           0  0  0
   -5.1064    0.5641    0.0000 C   0  0  0  0  0  0           0  0  0
    1.4573   -3.1026    0.0000 C   0  0  0  0  0  0           0  0  0
    2.8675   -3.1026    0.0000 C   0  0  0  0  0  0           0  0  0
    1.0989   -1.6747    0.0000 H   0  0  0  0  0  0           0  0  0
   -0.9755   -1.5454    0.0000 H   0  0  0  0  0  0           0  0  0
  2  4  2  0     0  0
  3  5  1  0     0  0
  4  1  1  0     0  0
  5  1  1  0     0  0
  6  1  1  0     0  0
  7  3  2  0     0  0
  8  2  1  0     0  0
  9  2  1  0     0  0
 10  8  1  0     0  0
 11  9  1  0     0  0
 12 11  1  0     0  0
 13  6  1  0     0  0
 14  6  1  0     0  0
 15  3  1  0     0  0
 16  5  2  0     0  0
 17  8  2  0     0  0
 13 18  1  1     0  0
 19 10  1  0     0  0
  1 20  1  1     0  0
 21 15  2  0     0  0
 22  4  1  0     0  0
 23  7  1  0     0  0
 11 24  1  6     0  0
 25 15  1  0     0  0
 26 12  1  0     0  0
 11 27  1  1     0  0
 28 19  1  0     0  0
 29 26  2  0     0  0
 30 19  2  0     0  0
 31 18  1  0     0  0
 32 18  1  0     0  0
  6 33  1  1     0  0
  9 34  1  1     0  0
  7 13  1  0     0  0
  9 14  1  0     0  0
 10 12  2  0     0  0
 30 29  1  0     0  0
M  END
>  <prID>
8

>  <IDDB>
1300

>  <pIC50_HIV_Integrase>
3.725842151

>  <Q>
-5.567477862

>  <Activity_Integrase>
Inactive_Integrase

NA
NA
NA
NA
$$$$

  Accelrys05311914342D 1   1.00000     0.00000     0

 21 22  0     0  0            999 V2000
   -1.4167    0.2208    0.0000 C   0  0  0  0  0  0           0  0  0
    1.3958    0.2125    0.0000 C   0  0  0  0  0  0           0  0  0
   -1.4583    1.1625    0.0000 C   0  0  0  0  0  0           0  0  0
    1.4083    1.0583    0.0000 C   0  0  0  0  0  0           0  0  0
    2.1167   -0.1917    0.0000 C   0  0  0  0  0  0           0  0  0
   -2.1083   -0.1833    0.0000 C   0  0  0  0  0  0           0  0  0
    0.6750   -0.2083    0.0000 C   0  0  0  0  0  0           0  0  0
   -0.6542   -0.2083    0.0000 C   0  0  0  0  0  0           0  0  0
   -0.6917    1.6125    0.0000 O   0  0  0  0  0  0           0  0  0
    2.0708    1.4458    0.0000 O   0  0  0  0  0  0           0  0  0
   -0.6542   -1.0292    0.0000 C   0  0  0  0  0  0           0  0  0
    0.6708   -1.0167    0.0000 C   0  0  0  0  0  0           0  0  0
    2.1042   -1.0000    0.0000 C   0  0  0  0  0  0           0  0  0
   -2.0875   -1.0292    0.0000 C   0  0  0  0  0  0           0  0  0
    0.0083   -1.4000    0.0000 C   0  0  0  0  0  0           0  0  0
    0.6875    1.5042    0.0000 O   0  0  0  0  0  0           0  0  0
   -2.1208    1.4583    0.0000 O   0  0  0  0  0  0           0  0  0
   -1.3667   -1.4458    0.0000 C   0  0  0  0  0  0           0  0  0
    1.3833   -1.4208    0.0000 C   0  0  0  0  0  0           0  0  0
   -2.8458    0.2667    0.0000 O   0  0  0  0  0  0           0  0  0
    2.8375    0.2292    0.0000 O   0  0  0  0  0  0           0  0  0
  2  7  2  0     0  0
  3  1  1  0     0  0
  4  2  1  0     0  0
  5 13  2  0     0  0
  6  1  1  0     0  0
  7 12  1  0     0  0
  8  1  2  0     0  0
  9  3  2  0     0  0
 10  4  2  0     0  0
 11  8  1  0     0  0
 12 15  1  0     0  0
 13 19  1  0     0  0
 14  6  2  0     0  0
 15 11  1  0     0  0
 16  4  1  0     0  0
 17  3  1  0     0  0
 18 14  1  0     0  0
 19 12  2  0     0  0
 20  6  1  0     0  0
 21  5  1  0     0  0
 18 11  2  0     0  0
  5  2  1  0     0  0
M  END
>  <prID>
9

>  <IDDB>
1333

>  <pIC50_HIV_Integrase>
4.614393726

>  <Q>
-2.28497456

>  <Activity_Integrase>
Inactive_Integrase

NA
NA
NA
NA
$$$$

  Accelrys05311914342D 1   1.00000     0.00000     0

 21 23  0     0  0            999 V2000
   -1.5075   -1.2582    0.0000 C   0  0  0  0  0  0           0  0  0
   -0.4867   -1.8458    0.0000 C   0  0  0  0  0  0           0  0  0
    0.5282   -0.0830    0.0000 C   0  0  0  0  0  0           0  0  0
    0.5282   -1.2582    0.0000 C   0  0  0  0  0  0           0  0  0
   -1.5075   -0.0830    0.0000 C   0  0  0  0  0  0           0  0  0
   -0.4867    0.5104    0.0000 O   0  0  0  0  0  0           0  0  0
   -2.5166   -1.8458    0.0000 C   0  0  0  0  0  0           0  0  0
    1.5431    0.5045    0.0000 C   0  0  0  0  0  0           0  0  0
   -2.5166    0.5104    0.0000 C   0  0  0  0  0  0           0  0  0
   -3.5374   -1.2582    0.0000 C   0  0  0  0  0  0           0  0  0
    1.5431    1.6856    0.0000 C   0  0  0  0  0  0           0  0  0
    2.5640    2.2791    0.0000 C   0  0  0  0  0  0           0  0  0
   -3.5374   -0.0830    0.0000 C   0  0  0  0  0  0           0  0  0
   -0.4867   -3.0210    0.0000 O   0  0  0  0  0  0           0  0  0
    3.5849    1.6856    0.0000 C   0  0  0  0  0  0           0  0  0
    2.5640   -0.0830    0.0000 C   0  0  0  0  0  0           0  0  0
    3.5849    0.5045    0.0000 C   0  0  0  0  0  0           0  0  0
   -2.5166   -3.0152    0.0000 O   0  0  0  0  0  0           0  0  0
    2.5640    3.4483    0.0000 O   0  0  0  0  0  0           0  0  0
   -4.5643    0.5045    0.0000 O   0  0  0  0  0  0           0  0  0
    4.6235    2.2791    0.0000 O   0  0  0  0  0  0           0  0  0
  2  1  1  0     0  0
  3  4  2  0     0  0
  4  2  1  0     0  0
  5  1  2  0     0  0
  6  5  1  0     0  0
  7  1  1  0     0  0
  8  3  1  0     0  0
  9  5  1  0     0  0
 10  7  2  0     0  0
 11  8  2  0     0  0
 12 11  1  0     0  0
 13 10  1  0     0  0
 14  2  2  0     0  0
 15 17  1  0     0  0
 16  8  1  0     0  0
 17 16  2  0     0  0
 18  7  1  0     0  0
 19 12  1  0     0  0
 20 13  1  0     0  0
 21 15  1  0     0  0
  3  6  1  0     0  0
 13  9  2  0     0  0
 15 12  2  0     0  0
M  END
>  <prID>
10

>  <IDDB>
1406

>  <pIC50_HIV_Integrase>
5.050609993

>  <Q>
-2.258574162

>  <Activity_Integrase>
Inactive_Integrase

NA
NA
NA
NA
$$$$

  Accelrys05311914342D 1   1.00000     0.00000     0

 23 25  0     0  0            999 V2000
   -1.8083   -1.4375    0.0000 C   0  0  0  0  0  0           0  0  0
    0.8583   -1.4375    0.0000 C   0  0  0  0  0  0           0  0  0
   -0.4750   -2.2000    0.0000 C   0  0  0  0  0  0           0  0  0
    0.8583    0.0958    0.0000 C   0  0  0  0  0  0           0  0  0
   -0.4750    0.8542    0.0000 O   0  0  0  0  0  0           0  0  0
   -1.8083    0.0958    0.0000 C   0  0  0  0  0  0           0  0  0
   -3.1417   -2.2000    0.0000 C   0  0  0  0  0  0           0  0  0
   -4.4792   -1.4375    0.0000 C   0  0  0  0  0  0           0  0  0
    2.1958    0.8542    0.0000 C   0  0  0  0  0  0           0  0  0
   -3.1417    0.8542    0.0000 C   0  0  0  0  0  0           0  0  0
   -4.4792    0.0958    0.0000 C   0  0  0  0  0  0           0  0  0
    2.1958    2.3958    0.0000 C   0  0  0  0  0  0           0  0  0
    3.5833    3.1542    0.0000 C   0  0  0  0  0  0           0  0  0
   -0.4625   -3.4542    0.0000 O   0  0  0  0  0  0           0  0  0
    4.8958    2.3708    0.0000 C   0  0  0  0  0  0           0  0  0
    3.5333    0.0708    0.0000 C   0  0  0  0  0  0           0  0  0
    2.2625   -2.1167    0.0000 O   0  0  0  0  0  0           0  0  0
    4.8958    0.8542    0.0000 C   0  0  0  0  0  0           0  0  0
   -3.1583   -3.7000    0.0000 O   0  0  0  0  0  0           0  0  0
   -5.8125   -2.0125    0.0000 O   0  0  0  0  0  0           0  0  0
   -5.9292    0.7083    0.0000 O   0  0  0  0  0  0           0  0  0
    3.5708    4.5375    0.0000 O   0  0  0  0  0  0           0  0  0
    6.2667    3.0917    0.0000 O   0  0  0  0  0  0           0  0  0
  2  3  1  0     0  0
  3  1  1  0     0  0
  4  2  2  0     0  0
  5  6  1  0     0  0
  6  1  2  0     0  0
  7  1  1  0     0  0
  8  7  2  0     0  0
  9  4  1  0     0  0
 10  6  1  0     0  0
 11  8  1  0     0  0
 12  9  2  0     0  0
 13 12  1  0     0  0
 14  3  2  0     0  0
 15 18  1  0     0  0
 16  9  1  0     0  0
 17  2  1  0     0  0
 18 16  2  0     0  0
 19  7  1  0     0  0
 20  8  1  0     0  0
 21 11  1  0     0  0
 22 13  1  0     0  0
 23 15  1  0     0  0
  4  5  1  0     0  0
 11 10  2  0     0  0
 15 13  2  0     0  0
M  END
>  <prID>
11

>  <IDDB>
1410

>  <pIC50_HIV_Integrase>
5.1505149975

>  <Q>
-3.83722123

>  <Activity_Integrase>
Inactive_Integrase

NA
NA
NA
NA
$$$$

  Accelrys05311914342D 1   1.00000     0.00000     0

 23 24  0     0  0            999 V2000
    1.8542    0.0583    0.0000 C   0  0  0  0  0  0           0  0  0
   -0.8042    0.0583    0.0000 C   0  0  0  0  0  0           0  0  0
    3.1625   -0.7208    0.0000 C   0  0  0  0  0  0           0  0  0
   -2.1542   -0.6833    0.0000 C   0  0  0  0  0  0           0  0  0
   -4.7792   -2.1792    0.0000 C   0  0  0  0  0  0           0  0  0
    0.5042   -0.7208    0.0000 O   0  0  0  0  0  0           0  0  0
    3.1625    2.3625    0.0000 C   0  0  0  0  0  0           0  0  0
    4.4792    0.0583    0.0000 C   0  0  0  0  0  0           0  0  0
   -4.7792   -0.6833    0.0000 C   0  0  0  0  0  0           0  0  0
   -3.4625   -2.9917    0.0000 C   0  0  0  0  0  0           0  0  0
    3.1625    3.8917    0.0000 C   0  0  0  0  0  0           0  0  0
    1.8542    1.5833    0.0000 C   0  0  0  0  0  0           0  0  0
   -3.4292    0.0958    0.0000 C   0  0  0  0  0  0           0  0  0
   -2.1542   -2.2125    0.0000 C   0  0  0  0  0  0           0  0  0
    4.5125    1.5500    0.0000 C   0  0  0  0  0  0           0  0  0
   -0.8042    1.5833    0.0000 O   0  0  0  0  0  0           0  0  0
    1.8542    4.6292    0.0000 O   0  0  0  0  0  0           0  0  0
    3.1625   -2.2458    0.0000 O   0  0  0  0  0  0           0  0  0
   -6.1583   -2.8833    0.0000 O   0  0  0  0  0  0           0  0  0
   -3.4625   -4.5167    0.0000 O   0  0  0  0  0  0           0  0  0
   -6.0875    0.0958    0.0000 O   0  0  0  0  0  0           0  0  0
    5.8208   -0.7208    0.0000 O   0  0  0  0  0  0           0  0  0
    4.5125    4.6292    0.0000 O   0  0  0  0  0  0           0  0  0
  2  6  1  0     0  0
  3  1  2  0     0  0
  4  2  1  0     0  0
  5  9  2  0     0  0
  6  1  1  0     0  0
  7 12  2  0     0  0
  8  3  1  0     0  0
  9 13  1  0     0  0
 10 14  2  0     0  0
 11  7  1  0     0  0
 12  1  1  0     0  0
 13  4  2  0     0  0
 14  4  1  0     0  0
 15  8  2  0     0  0
 16  2  2  0     0  0
 17 11  2  0     0  0
 18  3  1  0     0  0
 19  5  1  0     0  0
 20 10  1  0     0  0
 21  9  1  0     0  0
 22  8  1  0     0  0
 23 11  1  0     0  0
 15  7  1  0     0  0
  5 10  1  0     0  0
M  END
>  <prID>
12

>  <IDDB>
2319

>  <pIC50_HIV_Integrase>
6.22184875

>  <Q>
-4.007765086

>  <Activity_Integrase>
Active_Integrase

NA
NA
NA
NA
$$$$

  Accelrys05311914342D 1   1.00000     0.00000     0

 19 20  0     0  0            999 V2000
   -1.1633    0.3484    0.0000 C   0  0  0  0  0  0           0  0  0
   -0.1949   -0.2540    0.0000 C   0  0  0  0  0  0           0  0  0
   -1.1633    1.5531    0.0000 N   0  0  0  0  0  0           0  0  0
   -2.2028   -0.2126    0.0000 C   0  0  0  0  0  0           0  0  0
   -0.1949   -1.4410    0.0000 C   0  0  0  0  0  0           0  0  0
    0.8504    0.3071    0.0000 N   0  0  0  0  0  0           0  0  0
   -2.2028   -1.3937    0.0000 C   0  0  0  0  0  0           0  0  0
   -1.2165   -2.0079    0.0000 C   0  0  0  0  0  0           0  0  0
    3.9094    1.9843    0.0000 N   0  0  0  0  0  0           0  0  0
   -3.2304   -1.9606    0.0000 O   0  0  0  0  0  0           0  0  0
   -0.1358    2.0906    0.0000 C   0  0  3  0  0  0           0  0  0
    0.7855   -2.0492    0.0000 C   0  0  0  0  0  0           0  0  0
    1.8130   -0.3071    0.0000 C   0  0  0  0  0  0           0  0  0
    2.8878    1.4173    0.0000 C   0  0  0  0  0  0           0  0  0
   -3.1476   -3.2598    0.0000 C   0  0  0  0  0  0           0  0  0
    0.8858    1.4822    0.0000 C   0  0  0  0  0  0           0  0  0
   -0.1358    3.2421    0.0000 C   0  0  0  0  0  0           0  0  0
    1.8780    2.0137    0.0000 C   0  0  0  0  0  0           0  0  0
    1.8130   -1.4882    0.0000 C   0  0  0  0  0  0           0  0  0
  2  1  1  0     0  0
  3  1  1  0     0  0
  4  1  2  0     0  0
  5  2  2  0     0  0
  6  2  1  0     0  0
  7  4  1  0     0  0
  8  7  2  0     0  0
  9 14  1  0     0  0
 10  7  1  0     0  0
 11  3  1  0     0  0
 12  5  1  0     0  0
 13  6  2  0     0  0
 14 18  1  0     0  0
 15 10  1  0     0  0
 16 11  1  0     0  0
 17 11  1  0     0  0
 18 16  1  0     0  0
 19 13  1  0     0  0
  8  5  1  0     0  0
 19 12  2  0     0  0
M  END
>  <prID>
13

>  <IDDB>
2326

>  <pIC50_HIV_Integrase>
4.954677021

>  <Q>
-2.571960949

>  <Activity_Integrase>
Inactive_Integrase

NA
NA
NA
NA
$$$$

  Accelrys05311914342D 1   1.00000     0.00000     0

 23 25  0     0  0            999 V2000
    2.9125    1.6417    0.0000 C   0  0  0  0  0  0           0  0  0
    3.5167    0.5625    0.0000 C   0  0  0  0  0  0           0  0  0
    1.6583    1.4792    0.0000 N   0  0  0  0  0  0           0  0  0
   -3.2833   -2.6375    0.0000 N   0  0  0  0  0  0           0  0  0
   -2.1208   -1.9833    0.0000 C   0  0  0  0  0  0           0  0  0
   -2.1208   -0.6375    0.0000 C   0  0  0  0  0  0           0  0  0
    2.7667   -0.4125    0.0000 O   0  0  0  0  0  0           0  0  0
   -4.4208   -1.9833    0.0000 C   0  0  0  0  0  0           0  0  0
    1.4875    0.1458    0.0000 C   0  0  0  0  0  0           0  0  0
   -3.2833    0.0542    0.0000 C   0  0  0  0  0  0           0  0  0
   -4.4208   -0.6375    0.0000 C   0  0  0  0  0  0           0  0  0
   -0.9042    0.0917    0.0000 N   0  0  0  0  0  0           0  0  0
    3.5250    2.7375    0.0000 C   0  0  0  0  0  0           0  0  0
    4.7958    0.5875    0.0000 C   0  0  0  0  0  0           0  0  0
   -0.9708   -2.6792    0.0000 O   0  0  0  0  0  0           0  0  0
    0.2833   -0.6375    0.0000 C   0  0  0  0  0  0           0  0  0
    5.4208    1.6458    0.0000 C   0  0  0  0  0  0           0  0  0
    4.8083    2.7375    0.0000 C   0  0  0  0  0  0           0  0  0
    5.4583   -0.7167    0.0000 Cl  0  0  0  0  0  0           0  0  0
    2.9000    4.0125    0.0000 Cl  0  0  0  0  0  0           0  0  0
   -5.5708    0.0917    0.0000 C   0  0  0  0  0  0           0  0  0
   -5.6750   -2.7583    0.0000 C   0  0  0  0  0  0           0  0  0
   -6.8125   -0.6625    0.0000 C   0  0  0  0  0  0           0  0  0
  2  1  2  0     0  0
  3  1  1  0     0  0
  4  5  1  0     0  0
  5  6  1  0     0  0
  6 12  1  0     0  0
  7  2  1  0     0  0
  8  4  1  0     0  0
  9  3  2  0     0  0
 10  6  2  0     0  0
 11 10  1  0     0  0
 12 16  1  0     0  0
 13  1  1  0     0  0
 14  2  1  0     0  0
 15  5  2  0     0  0
 16  9  1  0     0  0
 17 18  1  0     0  0
 18 13  2  0     0  0
 19 14  1  0     0  0
 20 13  1  0     0  0
 21 11  1  0     0  0
 22  8  1  0     0  0
 23 21  1  0     0  0
  9  7  1  0     0  0
 17 14  2  0     0  0
  8 11  2  0     0  0
M  END
>  <prID>
14

>  <IDDB>
2756

>  <pIC50_HIV_Integrase>
7.522878745

>  <Q>
-3.998247828

>  <Activity_Integrase>
Active_Integrase

NA
NA
NA
NA
$$$$

  Accelrys05311914342D 1   1.00000     0.00000     0

 16 16  0     0  0            999 V2000
    5.2417   -8.6125    0.0000 O   0  0  0  0  0  0           0  0  0
    4.4167   -8.6125    0.0000 P   0  0  3  0  0  0           0  0  0
    3.5917   -8.6125    0.0000 O   0  0  0  0  0  0           0  0  0
    4.4125   -7.7875    0.0000 O   0  0  0  0  0  0           0  0  0
    4.4125   -9.4375    0.0000 O   0  0  0  0  0  0           0  0  0
    6.6777   -8.6208    0.0000 C   0  0  0  0  0  0           0  0  0
    6.6766   -9.4482    0.0000 C   0  0  0  0  0  0           0  0  0
    7.3914   -9.8610    0.0000 N   0  0  0  0  0  0           0  0  0
    8.1078   -9.4477    0.0000 C   0  0  0  0  0  0           0  0  0
    8.1050   -8.6172    0.0000 C   0  0  0  0  0  0           0  0  0
    7.3896   -8.2080    0.0000 C   0  0  0  0  0  0           0  0  0
    8.8167   -8.2000    0.0000 O   0  0  0  0  0  0           0  0  0
    8.8167   -9.8583    0.0000 C   0  0  0  0  0  0           0  0  0
    7.3833   -7.3792    0.0000 C   0  0  0  0  0  0           0  0  0
    8.0958   -6.9625    0.0000 O   0  0  0  0  0  0           0  0  0
    5.9583   -8.2042    0.0000 C   0  0  0  0  0  0           0  0  0
  8  9  1  0     0  0
  2  5  1  0     0  0
  9 10  2  0     0  0
 10 11  1  0     0  0
 11  6  2  0     0  0
  1  2  1  0     0  0
 10 12  1  0     0  0
  6  7  1  0     0  0
  9 13  1  0     0  0
  2  3  1  0     0  0
 11 14  1  0     0  0
  7  8  2  0     0  0
 14 15  2  0     0  0
  2  4  2  0     0  0
  6 16  1  0     0  0
 16  1  1  0     0  0
M  END
>  <prID>
15

>  <IDDB>
4250

>  <pIC50_HIV_Integrase>
4.744727495

>  <Q>
-3.776943099

>  <Activity_Integrase>
Inactive_Integrase

NA
NA
NA
NA
$$$$

  Accelrys05311914342D 1   1.00000     0.00000     0

 23 24  0     0  0            999 V2000
   -1.8375   -0.8458    0.0000 S   0  0  3  0  0  0           0  0  0
    2.3375   -0.9375    0.0000 S   0  0  3  0  0  0           0  0  0
   -0.5208    0.7000    0.0000 C   0  0  0  0  0  0           0  0  0
   -1.2292   -0.5375    0.0000 C   0  0  0  0  0  0           0  0  0
    1.6292   -0.5292    0.0000 C   0  0  0  0  0  0           0  0  0
    0.2000    0.2958    0.0000 C   0  0  0  0  0  0           0  0  0
    0.9083    0.7083    0.0000 C   0  0  0  0  0  0           0  0  0
    0.2000   -0.5333    0.0000 C   0  0  0  0  0  0           0  0  0
   -1.2292    0.2917    0.0000 C   0  0  0  0  0  0           0  0  0
    1.6208    0.3000    0.0000 C   0  0  0  0  0  0           0  0  0
   -0.5208    1.5333    0.0000 N   0  0  0  0  0  0           0  0  0
    0.9125   -0.9417    0.0000 C   0  0  0  0  0  0           0  0  0
   -0.5167   -0.9500    0.0000 C   0  0  0  0  0  0           0  0  0
   -1.4042   -1.5500    0.0000 O   0  0  0  0  0  0           0  0  0
   -2.2958   -0.1625    0.0000 O   0  0  0  0  0  0           0  0  0
    2.9208   -0.3500    0.0000 O   0  0  0  0  0  0           0  0  0
    1.9208   -1.6500    0.0000 O   0  0  0  0  0  0           0  0  0
   -1.2417    1.9417    0.0000 C   0  0  0  0  0  0           0  0  0
   -2.6083   -1.3542    0.0000 O   0  0  0  0  0  0           0  0  0
    3.0500   -1.3500    0.0000 O   0  0  0  0  0  0           0  0  0
   -1.9833    1.5417    0.0000 O   0  0  0  0  0  0           0  0  0
    0.8875    1.6417    0.0000 O   0  0  0  0  0  0           0  0  0
   -1.2458    2.7708    0.0000 C   0  0  0  0  0  0           0  0  0
  2  5  1  0     0  0
  3  9  1  0     0  0
  4  1  1  0     0  0
  5 12  2  0     0  0
  6  3  2  0     0  0
  7  6  1  0     0  0
  8 13  2  0     0  0
  9  4  2  0     0  0
 10  7  2  0     0  0
 11  3  1  0     0  0
 12  8  1  0     0  0
 13  4  1  0     0  0
 14  1  2  0     0  0
 15  1  2  0     0  0
 16  2  2  0     0  0
 17  2  2  0     0  0
 18 11  1  0     0  0
 19  1  1  0     0  0
 20  2  1  0     0  0
 21 18  2  0     0  0
 22  7  1  0     0  0
 23 18  1  0     0  0
  6  8  1  0     0  0
 10  5  1  0     0  0
M  END
>  <prID>
16

>  <IDDB>
4336

>  <pIC50_HIV_Integrase>
6.537602002

>  <Q>
-3.844696926

>  <Activity_Integrase>
Active_Integrase

NA
NA
NA
NA
$$$$

  Accelrys05311914342D 1   1.00000     0.00000     0

 14 15  0     0  0            999 V2000
    5.2333   -2.4375    0.0000 C   0  0  0  0  0  0           0  0  0
    5.2333   -3.2625    0.0000 C   0  0  0  0  0  0           0  0  0
    5.9454   -3.6708    0.0000 C   0  0  0  0  0  0           0  0  0
    6.6574   -3.2625    0.0000 C   0  0  0  0  0  0           0  0  0
    6.6574   -2.4375    0.0000 C   0  0  0  0  0  0           0  0  0
    5.9454   -2.0208    0.0000 C   0  0  0  0  0  0           0  0  0
    3.8027   -2.4375    0.0000 C   0  0  0  0  0  0           0  0  0
    3.8016   -3.2648    0.0000 C   0  0  0  0  0  0           0  0  0
    4.5164   -3.6777    0.0000 C   0  0  0  0  0  0           0  0  0
    4.5146   -2.0247    0.0000 C   0  0  0  0  0  0           0  0  0
    5.9375   -1.1958    0.0000 O   0  0  0  0  0  0           0  0  0
    5.9375   -4.4958    0.0000 O   0  0  0  0  0  0           0  0  0
    4.5083   -1.1958    0.0000 O   0  0  0  0  0  0           0  0  0
    4.5083   -4.5000    0.0000 O   0  0  0  0  0  0           0  0  0
  1  2  1  0     0  0
  7  8  2  0     0  0
  1  6  1  0     0  0
  8  9  1  0     0  0
  9  2  2  0     0  0
  2  3  1  0     0  0
  1 10  2  0     0  0
 10  7  1  0     0  0
  3  4  1  0     0  0
  6 11  2  0     0  0
  4  5  2  0     0  0
  3 12  2  0     0  0
  5  6  1  0     0  0
 10 13  1  0     0  0
  9 14  1  0     0  0
M  END
>  <prID>
17

>  <IDDB>
5214

>  <pIC50_HIV_Integrase>
4.9515449935

>  <Q>
-0.935537638

>  <Activity_Integrase>
Inactive_Integrase

NA
NA
NA
NA
$$$$

  Accelrys05311914342D 1   1.00000     0.00000     0

 58 63  0     0  0            999 V2000
   -2.9333    1.4750    0.0000 C   0  0  0  0  0  0           0  0  0
   -4.2208   -0.7417    0.0000 C   0  0  0  0  0  0           0  0  0
    3.1333    0.3500    0.0000 C   0  0  1  0  0  0           0  0  0
    1.1375   -0.7542    0.0000 C   0  0  2  0  0  0           0  0  0
    3.1333   -0.3792    0.0000 C   0  0  2  0  0  0           0  0  0
    1.8000   -0.3792    0.0000 C   0  0  2  0  0  0           0  0  0
    2.4792   -0.7542    0.0000 C   0  0  1  0  0  0           0  0  0
   -2.2750    0.3708    0.0000 C   0  0  0  0  0  0           0  0  0
   -2.9333   -0.7417    0.0000 C   0  0  0  0  0  0           0  0  0
   -2.2750   -0.3708    0.0000 C   0  0  0  0  0  0           0  0  0
   -2.9333    0.7375    0.0000 C   0  0  0  0  0  0           0  0  0
   -3.5708   -0.3708    0.0000 C   0  0  0  0  0  0           0  0  0
   -2.2750    1.8292    0.0000 C   0  0  0  0  0  0           0  0  0
   -4.2208   -1.4708    0.0000 C   0  0  0  0  0  0           0  0  0
    3.9292    0.6208    0.0000 C   0  0  2  0  0  0           0  0  0
   -3.5958    1.7417    0.0000 C   0  0  0  0  0  0           0  0  0
   -4.9208   -0.3708    0.0000 C   0  0  0  0  0  0           0  0  0
    1.1375   -1.4792    0.0000 C   0  0  1  0  0  0           0  0  0
   -1.6208    1.4750    0.0000 C   0  0  0  0  0  0           0  0  0
   -3.5708   -1.8375    0.0000 C   0  0  0  0  0  0           0  0  0
    2.4792    0.7125    0.0000 C   0  0  0  0  0  0           0  0  0
   -1.6208    0.7375    0.0000 C   0  0  0  0  0  0           0  0  0
   -2.9333   -1.4708    0.0000 C   0  0  0  0  0  0           0  0  0
    1.8000    0.3500    0.0000 C   0  0  0  0  0  0           0  0  0
    4.0500   -0.6583    0.0000 C   0  0  0  0  0  0           0  0  0
    0.4875   -0.3792    0.0000 C   0  0  0  0  0  0           0  0  0
    4.4917    0.0458    0.0000 C   0  0  0  0  0  0           0  0  0
    2.4792   -1.4792    0.0000 C   0  0  0  0  0  0           0  0  0
    1.8000   -1.8375    0.0000 C   0  0  0  0  0  0           0  0  0
   -1.6208   -0.7417    0.0000 C   0  0  0  0  0  0           0  0  0
    0.4875   -1.8375    0.0000 C   0  0  0  0  0  0           0  0  0
   -3.5958    2.4958    0.0000 O   0  0  0  0  0  0           0  0  0
   -4.9208    0.3375    0.0000 O   0  0  0  0  0  0           0  0  0
    3.9583    1.5167    0.0000 C   0  0  1  0  0  0           0  0  0
   -0.9000    1.9375    0.0000 Cl  0  0  0  0  0  0           0  0  0
   -3.5708   -2.5250    0.0000 Cl  0  0  0  0  0  0           0  0  0
   -4.8458   -1.7500    0.0000 O   0  0  0  0  0  0           0  0  0
   -2.2750    2.5333    0.0000 O   0  0  0  0  0  0           0  0  0
   -5.5667   -0.6792    0.0000 O   0  0  0  0  0  0           0  0  0
   -4.3125    1.4292    0.0000 O   0  0  0  0  0  0           0  0  0
    3.0417    1.2000    0.0000 C   0  0  0  0  0  0           0  0  0
   -0.1708   -0.7542    0.0000 C   0  0  0  0  0  0           0  0  0
    1.0792    0.2125    0.0000 C   0  0  0  0  0  0           0  0  0
   -0.1708   -1.4792    0.0000 C   0  0  2  0  0  0           0  0  0
   -1.6208   -1.4708    0.0000 C   0  0  0  0  0  0           0  0  0
    5.3333    1.4750    0.0000 C   0  0  0  0  0  0           0  0  0
    4.5917    1.8792    0.0000 C   0  0  0  0  0  0           0  0  0
   -0.8833   -1.8458    0.0000 C   0  0  0  0  0  0           0  0  0
    3.3000    1.9000    0.0000 C   0  0  0  0  0  0           0  0  0
    5.3333    0.7000    0.0000 C   0  0  0  0  0  0           0  0  0
    6.0458    0.3208    0.0000 C   0  0  3  0  0  0           0  0  0
    6.7083    0.7667    0.0000 C   0  0  0  0  0  0           0  0  0
    6.0458   -0.4958    0.0000 C   0  0  0  0  0  0           0  0  0
    2.4750    0.0125    0.0000 H   0  0  0  0  0  0           0  0  0
    1.7917   -1.1375    0.0000 H   0  0  0  0  0  0           0  0  0
    3.1625   -1.0917    0.0000 H   0  0  0  0  0  0           0  0  0
    1.1333   -2.2000    0.0000 H   0  0  0  0  0  0           0  0  0
    4.5917    1.0083    0.0000 H   0  0  0  0  0  0           0  0  0
  2 12  1  0     0  0
  3 21  1  0     0  0
  4 26  1  0     0  0
  5  7  1  0     0  0
  6  4  1  0     0  0
  7  6  1  0     0  0
  8 11  2  0     0  0
  9 10  1  0     0  0
 10  8  1  0     0  0
 11  1  1  0     0  0
 12  9  2  0     0  0
 13  1  2  0     0  0
 14 20  1  0     0  0
 15  3  1  0     0  0
 16  1  1  0     0  0
 17  2  1  0     0  0
 18 31  1  0     0  0
 19 13  1  0     0  0
 20 23  2  0     0  0
 21 24  1  0     0  0
 22 19  2  0     0  0
 23  9  1  0     0  0
 24  6  1  0     0  0
 25  5  1  0     0  0
 26 42  1  0     0  0
 27 25  1  0     0  0
 28 29  1  0     0  0
 29 18  1  0     0  0
 30 10  2  0     0  0
 31 44  1  0     0  0
 32 16  2  0     0  0
 33 17  2  0     0  0
 34 15  1  0     0  0
 35 19  1  0     0  0
 36 20  1  0     0  0
 37 14  1  0     0  0
 38 13  1  0     0  0
 39 17  1  0     0  0
 40 16  1  0     0  0
  3 41  1  1     0  0
 42 44  1  0     0  0
  4 43  1  1     0  0
 44 48  1  1     0  0
 45 30  1  0     0  0
 46 47  1  0     0  0
 47 34  1  0     0  0
 48 45  1  0     0  0
 34 49  1  6     0  0
 50 46  1  0     0  0
 51 50  1  0     0  0
 52 51  1  0     0  0
 53 51  1  0     0  0
  7 54  1  1     0  0
  6 55  1  6     0  0
  5 56  1  6     0  0
 18 57  1  6     0  0
 15 58  1  6     0  0
 22  8  1  0     0  0
 14  2  2  0     0  0
 18  4  1  0     0  0
 28  7  1  0     0  0
  3  5  1  0     0  0
 27 15  1  0     0  0
M  END
>  <prID>
18

>  <IDDB>
5499

>  <pIC50_HIV_Integrase>
4.602059991

>  <Q>
-10.00406634

>  <Activity_Integrase>
Inactive_Integrase

NA
NA
NA
NA
$$$$

  Accelrys05311914342D 1   1.00000     0.00000     0

 22 22  0     0  0            999 V2000
    3.0458   -4.6542    0.0000 C   0  0  0  0  0  0           0  0  0
    3.7291   -4.2542    0.0000 C   0  0  0  0  0  0           0  0  0
    2.3500   -4.2542    0.0000 C   0  0  0  0  0  0           0  0  0
    1.6625   -4.6500    0.0000 C   0  0  0  0  0  0           0  0  0
    3.7375   -3.4624    0.0000 O   0  0  0  0  0  0           0  0  0
    1.6709   -5.4416    0.0000 O   0  0  0  0  0  0           0  0  0
    2.3584   -3.4541    0.0000 O   0  0  0  0  0  0           0  0  0
    0.9792   -4.2500    0.0000 O   0  0  0  0  0  0           0  0  0
    4.4208   -4.6583    0.0000 C   0  0  0  0  0  0           0  0  0
    5.8042   -4.6542    0.0000 C   0  0  0  0  0  0           0  0  0
    7.1792   -4.6501    0.0000 C   0  0  0  0  0  0           0  0  0
    6.4959   -4.2501    0.0000 C   0  0  0  0  0  0           0  0  0
    7.8750   -4.2501    0.0000 C   0  0  0  0  0  0           0  0  0
    8.5625   -4.6459    0.0000 C   0  0  0  0  0  0           0  0  0
    6.4875   -3.4583    0.0000 O   0  0  0  0  0  0           0  0  0
    8.5541   -5.4375    0.0000 O   0  0  0  0  0  0           0  0  0
    7.8666   -3.4500    0.0000 O   0  0  0  0  0  0           0  0  0
    9.2458   -4.2459    0.0000 O   0  0  0  0  0  0           0  0  0
    5.1088   -4.2543    0.0000 C   0  0  0  0  0  0           0  0  0
    4.4213   -5.4597    0.0000 C   0  0  0  0  0  0           0  0  0
    5.1220   -5.8565    0.0000 C   0  0  0  0  0  0           0  0  0
    5.8103   -5.4507    0.0000 C   0  0  0  0  0  0           0  0  0
  5  2  2  0     0  0
  6  4  2  0     0  0
  7  3  2  0     0  0
  8  4  1  0     0  0
 11 12  1  0     0  0
 12 10  1  0     0  0
 13 11  1  0     0  0
 14 13  1  0     0  0
 15 12  2  0     0  0
 16 14  2  0     0  0
 17 13  2  0     0  0
 18 14  1  0     0  0
  1  2  1  0     0  0
 10 19  2  0     0  0
 19  9  1  0     0  0
  2  9  1  0     0  0
  9 20  2  0     0  0
  3  1  1  0     0  0
 20 21  1  0     0  0
  4  3  1  0     0  0
 21 22  2  0     0  0
 22 10  1  0     0  0
M  END
>  <prID>
19

>  <IDDB>
7125

>  <pIC50_HIV_Integrase>
5.73754891

>  <Q>
-1.933624951

>  <Activity_Integrase>
Inactive_Integrase

NA
NA
NA
NA
$$$$

  Accelrys05311914342D 1   1.00000     0.00000     0

 31 33  0     0  0            999 V2000
    5.6917   -1.7250    0.0000 C   0  0  0  0  0  0           0  0  0
    6.4417   -2.0542    0.0000 C   0  0  0  0  0  0           0  0  0
    4.9917   -2.1333    0.0000 C   0  0  0  0  0  0           0  0  0
    5.7792   -0.9125    0.0000 C   0  0  0  0  0  0           0  0  0
    6.9833   -1.4500    0.0000 N   0  0  3  0  0  0           0  0  0
    4.9750   -3.2542    0.0000 C   0  0  1  0  0  0           0  0  0
    6.5750   -0.7458    0.0000 C   0  0  1  0  0  0           0  0  0
    4.2750   -3.6667    0.0000 C   0  0  1  0  0  0           0  0  0
    4.2750   -4.4875    0.0000 C   0  0  2  0  0  0           0  0  0
    4.9750   -4.8833    0.0000 C   0  0  0  0  0  0           0  0  0
    5.6750   -4.4875    0.0000 C   0  0  0  0  0  0           0  0  0
    5.6750   -3.6667    0.0000 C   0  0  1  0  0  0           0  0  0
    6.8458   -2.6500    0.0000 O   0  0  0  0  0  0           0  0  0
    3.5708   -3.2625    0.0000 C   0  0  0  0  0  0           0  0  0
    5.2125   -0.3333    0.0000 O   0  0  0  0  0  0           0  0  0
    3.5750   -4.8917    0.0000 C   0  0  0  0  0  0           0  0  0
    4.2875   -1.7208    0.0000 O   0  0  0  0  0  0           0  0  0
    6.5167   -3.4417    0.0000 C   0  0  0  0  0  0           0  0  0
    7.2208   -3.9583    0.0000 C   0  0  0  0  0  0           0  0  0
    7.7750   -1.6542    0.0000 C   0  0  0  0  0  0           0  0  0
    6.9917   -0.0333    0.0000 C   0  0  0  0  0  0           0  0  0
    2.8708   -3.6750    0.0000 C   0  0  0  0  0  0           0  0  0
    5.6833   -2.8542    0.0000 C   0  0  0  0  0  0           0  0  0
    2.8750   -4.4875    0.0000 C   0  0  1  0  0  0           0  0  0
    7.8000   -0.0333    0.0000 O   0  0  0  0  0  0           0  0  0
    8.0500   -3.5292    0.0000 C   0  0  0  0  0  0           0  0  0
    2.1750   -4.8917    0.0000 C   0  0  0  0  0  0           0  0  0
    4.2792   -2.8542    0.0000 H   0  0  0  0  0  0           0  0  0
    4.2875   -5.2917    0.0000 H   0  0  0  0  0  0           0  0  0
    8.8583   -3.9958    0.0000 C   0  0  0  0  0  0           0  0  0
    9.6625   -3.5250    0.0000 C   0  0  0  0  0  0           0  0  0
  3  1  2  0     0  0
  4  1  1  0     0  0
  5  2  1  0     0  0
  6  3  1  0     0  0
  7  4  1  0     0  0
  8  6  1  0     0  0
  9  8  1  0     0  0
 10 11  2  0     0  0
 11 12  1  0     0  0
 12  6  1  0     0  0
 13  2  2  0     0  0
 14  8  1  0     0  0
 15  4  2  0     0  0
 16  9  1  0     0  0
 17  3  1  0     0  0
 12 18  1  6     0  0
 19 18  2  0     0  0
 20  5  1  0     0  0
  7 21  1  6     0  0
 22 14  1  0     0  0
  6 23  1  1     0  0
 24 22  1  0     0  0
 25 21  1  0     0  0
 26 19  1  0     0  0
 24 27  1  6     0  0
  8 28  1  6     0  0
  9 29  1  1     0  0
  5  7  1  0     0  0
 10  9  1  0     0  0
 24 16  1  0     0  0
 26 30  2  0     0  0
  2  1  1  0     0  0
 30 31  1  0     0  0
M  END
>  <prID>
20

>  <IDDB>
7818

>  <pIC50_HIV_Integrase>
4.958607315

>  <Q>
-2.990977607

>  <Activity_Integrase>
Inactive_Integrase

NA
NA
NA
NA
$$$$

  Accelrys05311914342D 1   1.00000     0.00000     0

 20 21  0     0  0            999 V2000
   -0.8764   -8.4208    0.0000 C   0  0  0  0  0  0           0  0  0
   -0.8776   -9.2482    0.0000 C   0  0  0  0  0  0           0  0  0
   -0.1628   -9.6610    0.0000 C   0  0  0  0  0  0           0  0  0
    0.5537   -9.2477    0.0000 C   0  0  0  0  0  0           0  0  0
    0.5508   -8.4172    0.0000 C   0  0  0  0  0  0           0  0  0
   -0.1646   -8.0080    0.0000 C   0  0  0  0  0  0           0  0  0
    1.2637   -8.0020    0.0000 C   0  0  0  0  0  0           0  0  0
    1.9797   -8.4118    0.0000 N   0  0  0  0  0  0           0  0  0
    1.2606   -7.1770    0.0000 O   0  0  0  0  0  0           0  0  0
    2.6927   -7.9966    0.0000 N   0  0  0  0  0  0           0  0  0
    3.4087   -8.4064    0.0000 C   0  0  0  0  0  0           0  0  0
    4.1216   -7.9912    0.0000 C   0  0  0  0  0  0           0  0  0
    3.4118   -9.2314    0.0000 O   0  0  0  0  0  0           0  0  0
    4.8336   -8.4028    0.0000 C   0  0  0  0  0  0           0  0  0
    5.5460   -7.9883    0.0000 C   0  0  0  0  0  0           0  0  0
    5.5433   -7.1624    0.0000 C   0  0  0  0  0  0           0  0  0
    4.8223   -6.7528    0.0000 C   0  0  0  0  0  0           0  0  0
    4.1128   -7.1696    0.0000 C   0  0  0  0  0  0           0  0  0
   -0.1670   -7.1830    0.0000 O   0  0  0  0  0  0           0  0  0
    4.8347   -9.2278    0.0000 O   0  0  0  0  0  0           0  0  0
  8 10  1  0     0  0
  2  3  1  0     0  0
 10 11  1  0     0  0
  5  6  2  0     0  0
 11 12  1  0     0  0
  6  1  1  0     0  0
 11 13  2  0     0  0
  1  2  2  0     0  0
 12 14  2  0     0  0
  5  7  1  0     0  0
 14 15  1  0     0  0
  3  4  2  0     0  0
 15 16  2  0     0  0
  7  8  1  0     0  0
 16 17  1  0     0  0
 17 18  2  0     0  0
 18 12  1  0     0  0
  7  9  2  0     0  0
  6 19  1  0     0  0
  4  5  1  0     0  0
 14 20  1  0     0  0
M  END
>  <prID>
21

>  <IDDB>
9001

>  <pIC50_HIV_Integrase>
5.9407023175

>  <Q>
-1.876901185

>  <Activity_Integrase>
Inactive_Integrase

NA
NA
NA
NA
$$$$

  Accelrys05311914342D 1   1.00000     0.00000     0

 70 75  0     0  0            999 V2000
   10.6382  -11.1456    0.0000 C   0  0  0  0  0  0           0  0  0
   11.3445  -11.5540    0.0000 C   0  0  0  0  0  0           0  0  0
   12.0507  -11.1493    0.0000 C   0  0  0  0  0  0           0  0  0
   12.0519  -10.3322    0.0000 C   0  0  0  0  0  0           0  0  0
   11.3411   -9.9214    0.0000 C   0  0  0  0  0  0           0  0  0
   10.6377  -10.3326    0.0000 C   0  0  0  0  0  0           0  0  0
    7.8084  -10.3250    0.0000 N   0  0  3  0  0  0           0  0  0
    7.8042  -11.1459    0.0000 C   0  0  3  0  0  0           0  0  0
    8.5085  -11.5555    0.0000 C   0  0  0  0  0  0           0  0  0
    9.2215  -11.1531    0.0000 N   0  0  3  0  0  0           0  0  0
    9.2257  -10.3322    0.0000 C   0  0  0  0  0  0           0  0  0
    8.5168   -9.9138    0.0000 C   0  0  3  0  0  0           0  0  0
    3.0424   -9.9198    0.0000 C   0  0  0  0  0  0           0  0  0
    3.7531  -10.3055    0.0000 C   0  0  0  0  0  0           0  0  0
    4.4110   -9.1375    0.0000 C   0  0  0  0  0  0           0  0  0
    4.4057   -9.9273    0.0000 C   0  0  0  0  0  0           0  0  0
    5.0816  -10.3251    0.0000 C   0  0  0  0  0  0           0  0  0
    5.7673   -9.9340    0.0000 C   0  0  0  0  0  0           0  0  0
    5.7686   -9.1410    0.0000 C   0  0  0  0  0  0           0  0  0
    5.0881   -8.7513    0.0000 C   0  0  0  0  0  0           0  0  0
    3.7244   -8.7466    0.0000 C   0  0  0  0  0  0           0  0  0
    3.0460   -9.1369    0.0000 C   0  0  0  0  0  0           0  0  0
    6.4459   -8.7418    0.0000 N   0  0  0  0  0  0           0  0  0
    6.4417   -7.7125    0.0000 C   0  0  0  0  0  0           0  0  0
    7.1208   -7.3167    0.0000 C   0  0  0  0  0  0           0  0  0
    7.1166   -6.5250    0.0000 C   0  0  0  0  0  0           0  0  0
    7.8083   -7.7083    0.0000 C   0  0  0  0  0  0           0  0  0
    6.4334   -6.1334    0.0000 C   0  0  0  0  0  0           0  0  0
    5.7208   -6.5042    0.0000 C   0  0  0  0  0  0           0  0  0
    4.8542   -6.0501    0.0000 C   0  0  1  0  0  0           0  0  0
    3.9292   -6.4709    0.0000 C   0  0  1  0  0  0           0  0  0
    2.8874   -6.0459    0.0000 C   0  0  2  0  0  0           0  0  0
    2.2000   -6.4376    0.0000 C   0  0  2  0  0  0           0  0  0
    3.7250   -8.1041    0.0000 O   0  0  0  0  0  0           0  0  0
    5.1000   -8.1584    0.0000 O   0  0  0  0  0  0           0  0  0
    5.7583   -7.3209    0.0000 O   0  0  0  0  0  0           0  0  0
    4.8500   -5.2583    0.0000 C   0  0  0  0  0  0           0  0  0
    2.8833   -5.2541    0.0000 C   0  0  0  0  0  0           0  0  0
    3.9334   -7.2376    0.0000 O   0  0  0  0  0  0           0  0  0
    2.3584  -10.3084    0.0000 O   0  0  0  0  0  0           0  0  0
    2.3542  -11.0959    0.0000 C   0  0  2  0  0  0           0  0  0
    3.7458  -11.0917    0.0000 C   0  0  0  0  0  0           0  0  0
    2.1958   -7.2251    0.0000 C   0  0  2  0  0  0           0  0  0
    1.5125   -7.6125    0.0000 C   0  0  1  0  0  0           0  0  0
    1.5084   -8.6417    0.0000 C   0  0  1  0  0  0           0  0  0
    0.8250   -9.0333    0.0000 C   0  0  2  0  0  0           0  0  0
    0.8208   -9.8208    0.0000 C   0  0  0  0  0  0           0  0  0
    1.5167   -6.0418    0.0000 O   0  0  0  0  0  0           0  0  0
    0.8292   -7.2209    0.0000 O   0  0  0  0  0  0           0  0  0
    2.8791   -7.6167    0.0000 C   0  0  0  0  0  0           0  0  0
    2.0251   -9.1750    0.0000 C   0  0  0  0  0  0           0  0  0
    0.1375   -8.6375    0.0000 O   0  0  0  0  0  0           0  0  0
    2.3500  -11.8876    0.0000 C   0  0  0  0  0  0           0  0  0
    5.0750  -11.1125    0.0000 O   0  0  0  0  0  0           0  0  0
    0.1874   -6.8375    0.0000 C   0  0  0  0  0  0           0  0  0
   -0.4376   -7.2458    0.0000 C   0  0  0  0  0  0           0  0  0
    0.1875   -6.0876    0.0000 O   0  0  0  0  0  0           0  0  0
   -0.5458   -9.0292    0.0000 C   0  0  0  0  0  0           0  0  0
    4.4333  -11.4875    0.0000 O   0  0  0  0  0  0           0  0  0
    2.4750   -8.5792    0.0000 C   0  0  0  0  0  0           0  0  0
    0.2625  -10.1625    0.0000 C   0  0  0  0  0  0           0  0  0
    0.2625  -11.0834    0.0000 O   0  0  0  0  0  0           0  0  0
    6.4459  -10.3292    0.0000 C   0  0  0  0  0  0           0  0  0
    7.1250   -9.9291    0.0000 N   0  0  0  0  0  0           0  0  0
    9.9292  -11.5583    0.0000 C   0  0  0  0  0  0           0  0  0
    7.0875  -11.5541    0.0000 C   0  0  0  0  0  0           0  0  0
    8.5125   -9.0875    0.0000 C   0  0  0  0  0  0           0  0  0
   12.7625   -9.9125    0.0000 N   0  3  0  0  0  0           0  0  0
   12.7584   -9.0875    0.0000 O   0  5  0  0  0  0           0  0  0
   13.4750  -10.3250    0.0000 O   0  0  0  0  0  0           0  0  0
  9 10  1  0     0  0
 10 11  1  0     0  0
 11 12  1  0     0  0
 17 18  1  0     0  0
 24 36  2  0     0  0
 30 37  1  1     0  0
 18 19  2  0     0  0
 32 38  1  6     0  0
 31 39  1  6     0  0
 19 20  1  0     0  0
 13 40  1  0     0  0
 20 15  2  0     0  0
 40 41  1  0     0  0
 14 16  1  0     0  0
 14 42  1  0     0  0
 41 42  1  0     0  0
 33 43  1  0     0  0
 15 21  1  0     0  0
 43 44  1  0     0  0
 44 45  1  0     0  0
 21 22  2  0     0  0
 45 46  1  0     0  0
 22 13  1  0     0  0
 46 47  1  0     0  0
 33 48  1  6     0  0
 19 23  1  0     0  0
 44 49  1  1     0  0
 43 50  1  1     0  0
 23 24  1  0     0  0
 45 51  1  6     0  0
 46 52  1  6     0  0
 24 25  1  0     0  0
 41 53  1  6     0  0
 17 54  1  0     0  0
 25 26  2  0     0  0
 49 55  1  0     0  0
 55 56  1  0     0  0
 25 27  1  0     0  0
 55 57  2  0     0  0
 52 58  1  0     0  0
 26 28  1  0     0  0
 42 59  2  0     0  0
 14 13  2  0     0  0
 22 60  1  0     0  0
 28 29  2  0     0  0
 47 61  2  0     0  0
 61 62  1  0     0  0
 41 62  1  1     0  0
 29 30  1  0     0  0
 18 63  1  0     0  0
 63 64  2  0     0  0
 64  7  1  0     0  0
 30 31  1  0     0  0
 15 16  1  0     0  0
 31 32  1  0     0  0
 32 33  1  0     0  0
 16 17  2  0     0  0
 21 34  1  0     0  0
 20 35  1  0     0  0
  6  1  1  0     0  0
 10 65  1  0     0  0
 65  1  1  0     0  0
  7  8  1  0     0  0
  1  2  2  0     0  0
  3  4  2  0     0  0
  4  5  1  0     0  0
  8 66  1  0     0  0
  2  3  1  0     0  0
 12 67  1  0     0  0
  5  6  2  0     0  0
  4 68  1  0     0  0
  7 12  1  0     0  0
 68 69  1  0     0  0
  8  9  1  0     0  0
 68 70  2  0     0  0
M  CHG  2  68   1  69  -1
M  END
>  <prID>
22

>  <IDDB>
9605

>  <pIC50_HIV_Integrase>
4.705533774

>  <Q>
-8.703796418

>  <Activity_Integrase>
Inactive_Integrase

NA
NA
NA
NA
$$$$

  Accelrys05311914342D 1   1.00000     0.00000     0

 31 34  0     0  0            999 V2000
    3.2583   -0.1125    0.0000 N   0  0  3  0  0  0           0  0  0
   -2.6583    0.2917    0.0000 S   0  0  3  0  0  0           0  0  0
    2.6167    0.3833    0.0000 C   0  0  0  0  0  0           0  0  0
    2.9917   -0.8917    0.0000 N   0  0  0  0  0  0           0  0  0
   -4.0250   -0.1042    0.0000 C   0  0  0  0  0  0           0  0  0
    1.9292   -0.0792    0.0000 C   0  0  3  0  0  0           0  0  0
   -3.4625    0.4875    0.0000 N   0  0  0  0  0  0           0  0  0
    2.1625   -0.8750    0.0000 C   0  0  0  0  0  0           0  0  0
   -4.8333    0.0917    0.0000 S   0  0  0  0  0  0           0  0  0
   -3.9625   -0.9250    0.0000 N   0  0  0  0  0  0           0  0  0
    1.1208    0.1125    0.0000 N   0  0  0  0  0  0           0  0  0
   -4.7292   -1.2417    0.0000 N   0  0  0  0  0  0           0  0  0
   -5.2625   -0.6125    0.0000 C   0  0  0  0  0  0           0  0  0
   -1.8542    0.1000    0.0000 C   0  0  0  0  0  0           0  0  0
    0.5583   -0.4833    0.0000 N   0  0  0  0  0  0           0  0  0
   -2.8500   -0.5042    0.0000 O   0  0  0  0  0  0           0  0  0
   -2.4625    1.0958    0.0000 O   0  0  0  0  0  0           0  0  0
    2.6583    1.2167    0.0000 O   0  0  0  0  0  0           0  0  0
    3.8833    0.4292    0.0000 C   0  0  0  0  0  0           0  0  0
   -1.2875    0.7000    0.0000 C   0  0  0  0  0  0           0  0  0
   -1.6208   -0.6917    0.0000 C   0  0  0  0  0  0           0  0  0
   -0.2458   -0.2875    0.0000 C   0  0  0  0  0  0           0  0  0
   -0.4792    0.5042    0.0000 C   0  0  0  0  0  0           0  0  0
   -0.8208   -0.8792    0.0000 C   0  0  0  0  0  0           0  0  0
    1.6542   -1.5375    0.0000 C   0  0  0  0  0  0           0  0  0
   -6.0833   -0.6750    0.0000 C   0  0  0  0  0  0           0  0  0
    3.8958    1.2542    0.0000 C   0  0  0  0  0  0           0  0  0
    4.5958    0.0042    0.0000 C   0  0  0  0  0  0           0  0  0
    5.3167    0.4042    0.0000 C   0  0  0  0  0  0           0  0  0
    4.6125    1.6625    0.0000 C   0  0  0  0  0  0           0  0  0
    5.3250    1.2292    0.0000 C   0  0  0  0  0  0           0  0  0
  2 14  1  0     0  0
  3  1  1  0     0  0
  4  1  1  0     0  0
  5  7  1  0     0  0
  6  3  1  0     0  0
  7  2  1  0     0  0
  8  4  2  0     0  0
  9  5  1  0     0  0
 10  5  2  0     0  0
 11  6  1  0     0  0
 12 10  1  0     0  0
 13  9  1  0     0  0
 14 21  2  0     0  0
 15 11  2  0     0  0
 16  2  2  0     0  0
 17  2  2  0     0  0
 18  3  2  0     0  0
 19  1  1  0     0  0
 20 23  2  0     0  0
 21 24  1  0     0  0
 22 15  1  0     0  0
 23 22  1  0     0  0
 24 22  2  0     0  0
 25  8  1  0     0  0
 26 13  1  0     0  0
 27 19  1  0     0  0
 28 19  2  0     0  0
 29 28  1  0     0  0
 30 27  2  0     0  0
 31 29  2  0     0  0
  8  6  1  0     0  0
 31 30  1  0     0  0
 14 20  1  0     0  0
 13 12  2  0     0  0
M  END
>  <prID>
23

>  <IDDB>
10688

>  <pIC50_HIV_Integrase>
4.113509275

>  <Q>
-1.669288548

>  <Activity_Integrase>
Inactive_Integrase

NA
NA
NA
NA
$$$$

  Accelrys05311914342D 1   1.00000     0.00000     0

 22 25  0     0  0            999 V2000
    0.7167    1.2625    0.0000 C   0  0  0  0  0  0           0  0  0
    0.4000   -0.1792    0.0000 C   0  0  0  0  0  0           0  0  0
    2.2167    1.4333    0.0000 C   0  0  0  0  0  0           0  0  0
    1.7000   -0.9375    0.0000 C   0  0  3  0  0  0           0  0  0
   -0.9000   -0.9375    0.0000 C   0  0  0  0  0  0           0  0  0
   -0.9000   -2.4500    0.0000 C   0  0  0  0  0  0           0  0  0
   -0.1750    2.4917    0.0000 C   0  0  0  0  0  0           0  0  0
    2.8375    2.8083    0.0000 C   0  0  0  0  0  0           0  0  0
    0.4000   -3.2083    0.0000 O   0  0  0  0  0  0           0  0  0
    0.4292    3.8792    0.0000 C   0  0  0  0  0  0           0  0  0
   -2.2000   -3.2083    0.0000 C   0  0  0  0  0  0           0  0  0
    1.9417    4.0250    0.0000 C   0  0  0  0  0  0           0  0  0
    2.8375    0.0583    0.0000 C   0  0  0  0  0  0           0  0  0
   -2.2000   -0.1792    0.0000 C   0  0  0  0  0  0           0  0  0
    1.7000   -2.4500    0.0000 C   0  0  0  0  0  0           0  0  0
   -3.5167   -2.4500    0.0000 C   0  0  0  0  0  0           0  0  0
    2.5625    5.4000    0.0000 O   0  0  0  0  0  0           0  0  0
   -3.5167   -0.9375    0.0000 C   0  0  0  0  0  0           0  0  0
    3.0917   -1.5583    0.0000 O   0  0  0  0  0  0           0  0  0
   -2.2000   -4.7208    0.0000 O   0  0  0  0  0  0           0  0  0
   -0.4417    5.1042    0.0000 O   0  0  0  0  0  0           0  0  0
   -4.8292   -3.2083    0.0000 O   0  0  0  0  0  0           0  0  0
  2  1  2  0     0  0
  3  1  1  0     0  0
  4  2  1  0     0  0
  5  2  1  0     0  0
  6  5  2  0     0  0
  7  1  1  0     0  0
  8  3  2  0     0  0
  9 15  1  0     0  0
 10  7  2  0     0  0
 11  6  1  0     0  0
 12 10  1  0     0  0
 13  3  1  0     0  0
 14  5  1  0     0  0
 15  4  1  0     0  0
 16 18  1  0     0  0
 17 12  2  0     0  0
 18 14  2  0     0  0
 19  4  1  0     0  0
 20 11  1  0     0  0
 21 10  1  0     0  0
 22 16  1  0     0  0
 13  4  1  0     0  0
 12  8  1  0     0  0
  9  6  1  0     0  0
 16 11  2  0     0  0
M  END
>  <prID>
24

>  <IDDB>
11885

>  <pIC50_HIV_Integrase>
5.053952699

>  <Q>
-3.0089942

>  <Activity_Integrase>
Inactive_Integrase

NA
NA
NA
NA
$$$$

  Accelrys05311914342D 1   1.00000     0.00000     0

 22 25  0     0  0            999 V2000
   -1.0875    0.1000    0.0000 C   0  0  0  0  0  0           0  0  0
    0.3625   -0.6875    0.0000 C   0  0  1  0  0  0           0  0  0
    0.3542    0.1125    0.0000 C   0  0  1  0  0  0           0  0  0
   -1.0833   -0.7000    0.0000 C   0  0  0  0  0  0           0  0  0
    1.0375    0.5167    0.0000 C   0  0  0  0  0  0           0  0  0
    1.7375    0.1208    0.0000 C   0  0  0  0  0  0           0  0  0
   -1.7875    0.5000    0.0000 C   0  0  0  0  0  0           0  0  0
   -0.3875   -0.9583    0.0000 C   0  0  0  0  0  0           0  0  0
    1.7542   -0.6792    0.0000 O   0  0  0  0  0  0           0  0  0
   -1.7792   -1.1042    0.0000 C   0  0  0  0  0  0           0  0  0
   -2.4875    0.1000    0.0000 C   0  0  0  0  0  0           0  0  0
   -2.4750   -0.7083    0.0000 C   0  0  0  0  0  0           0  0  0
    1.0625   -1.0833    0.0000 C   0  0  0  0  0  0           0  0  0
    2.4250    0.5292    0.0000 C   0  0  0  0  0  0           0  0  0
    1.0250    1.3125    0.0000 C   0  0  0  0  0  0           0  0  0
    0.3750   -1.5000    0.0000 O   0  0  0  0  0  0           0  0  0
    2.4167    1.3333    0.0000 C   0  0  0  0  0  0           0  0  0
    1.7167    1.7250    0.0000 C   0  0  0  0  0  0           0  0  0
   -3.1833    0.4875    0.0000 O   0  0  0  0  0  0           0  0  0
   -3.1625   -1.1167    0.0000 O   0  0  0  0  0  0           0  0  0
    3.1083    1.7417    0.0000 O   0  0  0  0  0  0           0  0  0
   -0.0667    0.8292    0.0000 H   0  0  0  0  0  0           0  0  0
  2  3  1  0     0  0
  3  1  1  0     0  0
  4  1  1  0     0  0
  5  3  1  0     0  0
  6  5  2  0     0  0
  7  1  2  0     0  0
  8  4  1  0     0  0
  9  6  1  0     0  0
 10  4  2  0     0  0
 11  7  1  0     0  0
 12 11  2  0     0  0
 13  2  1  0     0  0
 14  6  1  0     0  0
 15  5  1  0     0  0
  2 16  1  1     0  0
 17 18  1  0     0  0
 18 15  2  0     0  0
 19 11  1  0     0  0
 20 12  1  0     0  0
 21 17  1  0     0  0
  3 22  1  1     0  0
  8  2  1  0     0  0
 12 10  1  0     0  0
  9 13  1  0     0  0
 17 14  2  0     0  0
M  END
>  <prID>
25

>  <IDDB>
11901

>  <pIC50_HIV_Integrase>
4.455931956

>  <Q>
-3.187288894

>  <Activity_Integrase>
Inactive_Integrase

NA
NA
NA
NA
$$$$

  Accelrys05311914342D 1   1.00000     0.00000     0

 22 25  0     0  0            999 V2000
    0.7167    1.2625    0.0000 C   0  0  0  0  0  0           0  0  0
    1.7000   -0.9375    0.0000 C   0  0  3  0  0  0           0  0  0
    0.4000   -0.1792    0.0000 C   0  0  3  0  0  0           0  0  0
   -0.9000   -0.9375    0.0000 C   0  0  0  0  0  0           0  0  0
   -0.9000   -2.4500    0.0000 C   0  0  0  0  0  0           0  0  0
    2.2167    1.4333    0.0000 C   0  0  0  0  0  0           0  0  0
    0.4000   -3.2083    0.0000 O   0  0  0  0  0  0           0  0  0
   -2.2000   -3.2083    0.0000 C   0  0  0  0  0  0           0  0  0
   -0.1750    2.4917    0.0000 C   0  0  0  0  0  0           0  0  0
    2.8375    0.0583    0.0000 C   0  0  0  0  0  0           0  0  0
    2.8375    2.8083    0.0000 C   0  0  0  0  0  0           0  0  0
   -2.2000   -0.1792    0.0000 C   0  0  0  0  0  0           0  0  0
    1.7000   -2.4500    0.0000 C   0  0  0  0  0  0           0  0  0
    0.4292    3.8792    0.0000 C   0  0  0  0  0  0           0  0  0
    1.9417    4.0292    0.0000 C   0  0  0  0  0  0           0  0  0
   -3.5167   -2.4500    0.0000 C   0  0  0  0  0  0           0  0  0
   -3.5167   -0.9375    0.0000 C   0  0  0  0  0  0           0  0  0
    3.0917   -1.5583    0.0000 O   0  0  0  0  0  0           0  0  0
   -2.2000   -4.7208    0.0000 O   0  0  0  0  0  0           0  0  0
   -0.4417    5.1042    0.0000 O   0  0  0  0  0  0           0  0  0
    2.5625    5.4000    0.0000 O   0  0  0  0  0  0           0  0  0
   -4.8292   -3.2083    0.0000 O   0  0  0  0  0  0           0  0  0
  2  3  1  0     0  0
  3  1  1  0     0  0
  4  3  1  0     0  0
  5  4  2  0     0  0
  6  1  1  0     0  0
  7 13  1  0     0  0
  8  5  1  0     0  0
  9  1  2  0     0  0
 10  6  1  0     0  0
 11  6  2  0     0  0
 12  4  1  0     0  0
 13  2  1  0     0  0
 14  9  1  0     0  0
 15 14  2  0     0  0
 16 17  1  0     0  0
 17 12  2  0     0  0
 18  2  1  0     0  0
 19  8  1  0     0  0
 20 14  1  0     0  0
 21 15  1  0     0  0
 22 16  1  0     0  0
 10  2  1  0     0  0
 15 11  1  0     0  0
  7  5  1  0     0  0
 16  8  2  0     0  0
M  END
>  <prID>
26

>  <IDDB>
11902

>  <pIC50_HIV_Integrase>
5.301029996

>  <Q>
-3.975969936

>  <Activity_Integrase>
Inactive_Integrase

NA
NA
NA
NA
$$$$

  Accelrys05311914342D 1   1.00000     0.00000     0

 26 29  0     0  0            999 V2000
    0.8000    0.7958    0.0000 C   0  0  0  0  0  0           0  0  0
    0.9625   -1.8625    0.0000 C   0  0  1  0  0  0           0  0  0
    0.1083   -0.5792    0.0000 C   0  0  2  0  0  0           0  0  0
    2.3458    0.8875    0.0000 C   0  0  0  0  0  0           0  0  0
    2.5000   -1.7708    0.0000 C   0  0  1  0  0  0           0  0  0
   -1.4208   -0.6708    0.0000 C   0  0  0  0  0  0           0  0  0
    3.0542   -3.2083    0.0000 C   0  0  0  0  0  0           0  0  0
    3.1917   -0.3833    0.0000 C   0  0  0  0  0  0           0  0  0
   -0.0417    2.0833    0.0000 C   0  0  0  0  0  0           0  0  0
    1.8625   -4.1750    0.0000 O   0  0  0  0  0  0           0  0  0
    0.5708   -3.3583    0.0000 C   0  0  0  0  0  0           0  0  0
    3.0125    2.2625    0.0000 C   0  0  0  0  0  0           0  0  0
    0.6375    3.4500    0.0000 C   0  0  0  0  0  0           0  0  0
   -2.2625    0.6167    0.0000 C   0  0  0  0  0  0           0  0  0
    2.1750    3.5458    0.0000 C   0  0  0  0  0  0           0  0  0
   -3.8125    0.5208    0.0000 C   0  0  0  0  0  0           0  0  0
   -2.1125   -2.0542    0.0000 C   0  0  0  0  0  0           0  0  0
   -4.5000   -0.8500    0.0000 C   0  0  0  0  0  0           0  0  0
    4.5458   -3.5875    0.0000 O   0  0  0  0  0  0           0  0  0
   -3.6333   -2.1375    0.0000 C   0  0  0  0  0  0           0  0  0
   -0.2167    4.7250    0.0000 O   0  0  0  0  0  0           0  0  0
    2.8625    4.9125    0.0000 O   0  0  0  0  0  0           0  0  0
   -4.6542    1.8125    0.0000 O   0  0  0  0  0  0           0  0  0
   -6.0167   -0.9458    0.0000 O   0  0  0  0  0  0           0  0  0
   -0.1042   -1.8792    0.0000 H   0  0  0  0  0  0           0  0  0
    3.6792   -1.7708    0.0000 H   0  0  0  0  0  0           0  0  0
  2  3  1  0     0  0
  3  1  1  0     0  0
  4  1  2  0     0  0
  5  8  1  0     0  0
  3  6  1  6     0  0
  7  5  1  0     0  0
  8  4  1  0     0  0
  9  1  1  0     0  0
 10 11  1  0     0  0
 11  2  1  0     0  0
 12  4  1  0     0  0
 13  9  2  0     0  0
 14  6  2  0     0  0
 15 13  1  0     0  0
 16 14  1  0     0  0
 17  6  1  0     0  0
 18 20  1  0     0  0
 19  7  2  0     0  0
 20 17  2  0     0  0
 21 13  1  0     0  0
 22 15  1  0     0  0
 23 16  1  0     0  0
 24 18  1  0     0  0
  2 25  1  6     0  0
  5 26  1  1     0  0
 15 12  2  0     0  0
  5  2  1  0     0  0
 10  7  1  0     0  0
 18 16  2  0     0  0
M  END
>  <prID>
27

>  <IDDB>
11914

>  <pIC50_HIV_Integrase>
5.801029996

>  <Q>
-3.573914721

>  <Activity_Integrase>
Inactive_Integrase

NA
NA
NA
NA
$$$$

  Accelrys05311914342D 1   1.00000     0.00000     0

 13 13  0     0  0            999 V2000
    0.8083   -0.3625    0.0000 C   0  0  0  0  0  0           0  0  0
    1.0000    0.4333    0.0000 C   0  0  0  0  0  0           0  0  0
    0.0708   -0.7083    0.0000 C   0  0  0  0  0  0           0  0  0
   -0.6625   -0.3458    0.0000 C   0  0  0  0  0  0           0  0  0
    0.5000    1.0750    0.0000 C   0  0  0  0  0  0           0  0  0
   -0.8417    0.4625    0.0000 C   0  0  0  0  0  0           0  0  0
   -0.3208    1.0833    0.0000 C   0  0  0  0  0  0           0  0  0
    1.8125    0.6208    0.0000 O   0  0  0  0  0  0           0  0  0
   -1.3125   -0.8667    0.0000 C   0  0  3  0  0  0           0  0  0
    1.4500   -0.9000    0.0000 O   0  0  0  0  0  0           0  0  0
    0.8667    1.8208    0.0000 O   0  0  0  0  0  0           0  0  0
   -2.0750   -0.5625    0.0000 C   0  0  0  0  0  0           0  0  0
   -1.3208   -1.7208    0.0000 C   0  0  0  0  0  0           0  0  0
  2  1  1  0     0  0
  3  1  2  0     0  0
  4  3  1  0     0  0
  5  2  1  0     0  0
  6  4  2  0     0  0
  7  5  2  0     0  0
  8  2  2  0     0  0
  9  4  1  0     0  0
 10  1  1  0     0  0
 11  5  1  0     0  0
 12  9  1  0     0  0
 13  9  1  0     0  0
  7  6  1  0     0  0
M  END
>  <prID>
28

>  <IDDB>
11944

>  <pIC50_HIV_Integrase>
5.0216757105

>  <Q>
-1.364684621

>  <Activity_Integrase>
Inactive_Integrase

NA
NA
NA
NA
$$$$

  Accelrys05311914342D 1   1.00000     0.00000     0

 29 31  0     0  0            999 V2000
   -0.4458    0.7625    0.0000 C   0  0  0  0  0  0           0  0  0
    0.2083    1.2708    0.0000 C   0  0  0  0  0  0           0  0  0
   -0.4542   -0.0583    0.0000 C   0  0  0  0  0  0           0  0  0
    0.1792   -0.5875    0.0000 O   0  0  0  0  0  0           0  0  0
   -1.1542    1.1875    0.0000 C   0  0  0  0  0  0           0  0  0
    1.0042    1.0750    0.0000 O   0  0  0  0  0  0           0  0  0
    1.3542    0.3333    0.0000 C   0  0  0  0  0  0           0  0  0
    0.9875   -0.4167    0.0000 C   0  0  0  0  0  0           0  0  0
    1.4500   -1.1083    0.0000 C   0  0  0  0  0  0           0  0  0
   -1.1750   -0.4583    0.0000 C   0  0  0  0  0  0           0  0  0
    2.1875    0.3958    0.0000 C   0  0  0  0  0  0           0  0  0
   -1.1458    2.0167    0.0000 C   0  0  0  0  0  0           0  0  0
   -1.8792    0.7833    0.0000 C   0  0  0  0  0  0           0  0  0
    0.2000    2.0000    0.0000 O   0  0  0  0  0  0           0  0  0
   -1.8875   -0.0375    0.0000 C   0  0  0  0  0  0           0  0  0
    2.2750   -1.0458    0.0000 C   0  0  0  0  0  0           0  0  0
    2.6542   -0.2958    0.0000 C   0  0  0  0  0  0           0  0  0
   -0.4208    2.4167    0.0000 O   0  0  0  0  0  0           0  0  0
   -2.6167   -0.4375    0.0000 O   0  0  0  0  0  0           0  0  0
    3.3583   -0.2875    0.0000 O   0  0  0  0  0  0           0  0  0
    1.1000   -1.8667    0.0000 C   0  0  0  0  0  0           0  0  0
   -1.8583    2.4375    0.0000 C   0  0  0  0  0  0           0  0  0
    1.5792   -2.5500    0.0000 C   0  0  0  0  0  0           0  0  0
   -2.5750    2.0333    0.0000 C   0  0  0  0  0  0           0  0  0
   -3.2875    2.4583    0.0000 C   0  0  0  0  0  0           0  0  0
    1.7125   -3.9792    0.0000 C   0  0  0  0  0  0           0  0  0
    1.2333   -3.3000    0.0000 C   0  0  0  0  0  0           0  0  0
   -4.0042    2.0583    0.0000 C   0  0  0  0  0  0           0  0  0
    1.3667   -4.7250    0.0000 C   0  0  0  0  0  0           0  0  0
  2  1  1  0     0  0
  3  1  1  0     0  0
  4  3  1  0     0  0
  5  1  2  0     0  0
  6  2  1  0     0  0
  7  6  1  0     0  0
  8  4  1  0     0  0
  9  8  2  0     0  0
 10  3  2  0     0  0
 11  7  2  0     0  0
 12  5  1  0     0  0
 13  5  1  0     0  0
 14  2  2  0     0  0
 15 13  2  0     0  0
 16  9  1  0     0  0
 17 11  1  0     0  0
 18 12  2  0     0  0
 19 15  1  0     0  0
 20 17  1  0     0  0
 21  9  1  0     0  0
 22 12  1  0     0  0
 23 21  1  0     0  0
 24 22  1  0     0  0
 25 24  1  0     0  0
 26 27  1  0     0  0
 27 23  1  0     0  0
 28 25  1  0     0  0
 29 26  1  0     0  0
 15 10  1  0     0  0
  7  8  1  0     0  0
 17 16  2  0     0  0
M  END
>  <prID>
29

>  <IDDB>
11992

>  <pIC50_HIV_Integrase>
3.9076303

>  <Q>
-3.63923313

>  <Activity_Integrase>
Inactive_Integrase

NA
NA
NA
NA
$$$$

  Accelrys05311914342D 1   1.00000     0.00000     0

 25 26  0     0  0            999 V2000
    7.6410   -3.9089    0.0000 C   0  0  1  0  0  0           0  0  0
    6.9074   -2.7013    0.0000 C   0  0  2  0  0  0           0  0  0
    6.9183   -3.5164    0.0000 C   0  0  0  0  0  0           0  0  0
    8.3312   -3.4774    0.0000 C   0  0  0  0  0  0           0  0  0
    7.5989   -2.2749    0.0000 C   0  0  1  0  0  0           0  0  0
    7.1328   -4.5441    0.0000 C   0  0  0  0  0  0           0  0  0
    8.3147   -2.6663    0.0000 C   0  0  2  0  0  0           0  0  0
    6.1834   -2.3087    0.0000 O   0  0  0  0  0  0           0  0  0
    5.5010   -2.7338    0.0000 C   0  0  0  0  0  0           0  0  0
    4.7810   -2.3425    0.0000 C   0  0  0  0  0  0           0  0  0
    2.6261   -1.2662    0.0000 C   0  0  0  0  0  0           0  0  0
    4.0838   -2.8534    0.0000 C   0  0  0  0  0  0           0  0  0
    1.9425   -1.6954    0.0000 C   0  0  0  0  0  0           0  0  0
    3.3459   -1.6590    0.0000 C   0  0  0  0  0  0           0  0  0
    7.4312   -5.2891    0.0000 O   0  0  0  0  0  0           0  0  0
    5.5201   -3.5502    0.0000 O   0  0  0  0  0  0           0  0  0
    3.3637   -2.4661    0.0000 C   0  0  0  0  0  0           0  0  0
    1.9509   -2.5051    0.0000 C   0  0  0  0  0  0           0  0  0
    8.5258   -4.4305    0.0000 O   0  0  0  0  0  0           0  0  0
    7.5824   -1.4638    0.0000 O   0  0  0  0  0  0           0  0  0
    6.2194   -4.5581    0.0000 O   0  0  0  0  0  0           0  0  0
    9.0104   -2.2397    0.0000 O   0  0  0  0  0  0           0  0  0
    2.6070   -0.4499    0.0000 O   0  0  0  0  0  0           0  0  0
    2.6682   -2.8871    0.0000 C   0  0  0  0  0  0           0  0  0
    1.2238   -1.3001    0.0000 O   0  0  0  0  0  0           0  0  0
  2  3  1  0     0  0
  3  1  1  0     0  0
  4  1  1  0     0  0
  5  7  1  0     0  0
  1  6  1  1     0  0
  7  4  1  0     0  0
  2  8  1  1     0  0
  9  8  1  0     0  0
 10  9  1  0     0  0
 11 14  1  0     0  0
 12 10  2  3     0  0
 13 18  1  0     0  0
 14 17  2  0     0  0
 15  6  2  0     0  0
 16  9  2  0     0  0
 17 12  1  0     0  0
 18 24  2  0     0  0
  1 19  1  6     0  0
  5 20  1  6     0  0
 21  6  1  0     0  0
  7 22  1  6     0  0
 23 11  1  0     0  0
 24 17  1  0     0  0
 25 13  1  0     0  0
  5  2  1  0     0  0
 13 11  2  0     0  0
M  END
>  <prID>
30

>  <IDDB>
12116

>  <pIC50_HIV_Integrase>
5.107905397

>  <Q>
-5.527294383

>  <Activity_Integrase>
Inactive_Integrase

NA
NA
NA
NA
$$$$

  Accelrys05311914342D 1   1.00000     0.00000     0

 28 31  0     0  0            999 V2000
    1.6083    0.7958    0.0000 C   0  0  0  0  0  0           0  0  0
    0.7792    0.7833    0.0000 C   0  0  0  0  0  0           0  0  0
    0.3792    0.2250    0.0000 C   0  0  0  0  0  0           0  0  0
    1.8458    1.5833    0.0000 C   0  0  0  0  0  0           0  0  0
    0.7417   -0.5125    0.0000 C   0  0  0  0  0  0           0  0  0
   -1.0625   -0.1250    0.0000 C   0  0  0  0  0  0           0  0  0
   -1.0542   -0.9500    0.0000 C   0  0  0  0  0  0           0  0  0
   -0.4083   -1.4458    0.0000 C   0  0  0  0  0  0           0  0  0
    1.6375   -0.5000    0.0000 C   0  0  0  0  0  0           0  0  0
    2.0167    0.1250    0.0000 C   0  0  0  0  0  0           0  0  0
    0.3958   -1.2625    0.0000 O   0  0  0  0  0  0           0  0  0
   -0.4292    0.4000    0.0000 O   0  0  0  0  0  0           0  0  0
    0.5167    1.5625    0.0000 C   0  0  3  0  0  0           0  0  0
    1.1667    2.0500    0.0000 O   0  0  0  0  0  0           0  0  0
   -1.7833    0.2708    0.0000 C   0  0  0  0  0  0           0  0  0
   -1.7500   -1.3750    0.0000 C   0  0  0  0  0  0           0  0  0
   -2.4833   -0.1458    0.0000 C   0  0  0  0  0  0           0  0  0
   -2.4792   -0.9667    0.0000 C   0  0  0  0  0  0           0  0  0
    2.6208    1.8458    0.0000 O   0  0  0  0  0  0           0  0  0
   -0.5708   -2.2458    0.0000 O   0  0  0  0  0  0           0  0  0
   -1.7917    1.0958    0.0000 C   0  0  0  0  0  0           0  0  0
    3.0333    0.0958    0.0000 O   0  0  0  0  0  0           0  0  0
   -0.2708    1.8083    0.0000 O   0  0  0  0  0  0           0  0  0
   -2.5125    1.4958    0.0000 O   0  0  0  0  0  0           0  0  0
    1.9292   -1.3000    0.0000 C   0  0  0  0  0  0           0  0  0
   -3.2000    0.2542    0.0000 O   0  0  0  0  0  0           0  0  0
   -1.7458   -2.1958    0.0000 C   0  0  0  0  0  0           0  0  0
    2.8167   -1.3083    0.0000 O   0  0  0  0  0  0           0  0  0
  2  1  1  0     0  0
  3  2  2  0     0  0
  4  1  1  0     0  0
  5  9  2  0     0  0
  6 12  1  0     0  0
  7  6  2  0     0  0
  8 11  1  0     0  0
  9 10  1  0     0  0
 10  1  2  0     0  0
 11  5  1  0     0  0
 12  3  1  0     0  0
 13  2  1  0     0  0
 14  4  1  0     0  0
 15  6  1  0     0  0
 16  7  1  0     0  0
 17 15  2  0     0  0
 18 17  1  0     0  0
 19  4  2  0     0  0
 20  8  2  0     0  0
 21 15  1  0     0  0
 22 10  1  0     0  0
 23 13  1  0     0  0
 24 21  2  0     0  0
 25  9  1  0     0  0
 26 17  1  0     0  0
 27 16  1  0     0  0
 28 25  1  0     0  0
 14 13  1  0     0  0
  5  3  1  0     0  0
  7  8  1  0     0  0
 18 16  2  0     0  0
M  END
>  <prID>
31

>  <IDDB>
12148

>  <pIC50_HIV_Integrase>
4.314258261

>  <Q>
-3.998607218

>  <Activity_Integrase>
Inactive_Integrase

NA
NA
NA
NA
$$$$

  Accelrys05311914342D 1   1.00000     0.00000     0

 28 31  0     0  0            999 V2000
    1.8708    0.7958    0.0000 C   0  0  0  0  0  0           0  0  0
    1.0458    0.8000    0.0000 C   0  0  0  0  0  0           0  0  0
    0.6167    0.1583    0.0000 C   0  0  0  0  0  0           0  0  0
    2.1375    1.5750    0.0000 C   0  0  0  0  0  0           0  0  0
   -0.8375   -0.1708    0.0000 C   0  0  0  0  0  0           0  0  0
    0.9667   -0.5958    0.0000 C   0  0  0  0  0  0           0  0  0
   -0.8417   -1.0000    0.0000 C   0  0  0  0  0  0           0  0  0
   -0.2417   -1.5917    0.0000 C   0  0  0  0  0  0           0  0  0
    0.6083   -1.3333    0.0000 O   0  0  0  0  0  0           0  0  0
    2.2875    0.0708    0.0000 C   0  0  0  0  0  0           0  0  0
   -0.1875    0.3417    0.0000 O   0  0  0  0  0  0           0  0  0
    0.8000    1.5917    0.0000 C   0  0  3  0  0  0           0  0  0
    1.4708    2.0625    0.0000 O   0  0  0  0  0  0           0  0  0
    1.9125   -0.5958    0.0000 C   0  0  0  0  0  0           0  0  0
   -1.5583    0.2458    0.0000 C   0  0  0  0  0  0           0  0  0
   -1.5625   -1.4083    0.0000 C   0  0  0  0  0  0           0  0  0
   -2.2708   -0.1625    0.0000 C   0  0  0  0  0  0           0  0  0
   -2.2750   -0.9917    0.0000 C   0  0  0  0  0  0           0  0  0
    2.9250    1.8250    0.0000 O   0  0  0  0  0  0           0  0  0
   -0.2417   -2.5333    0.0000 O   0  0  0  0  0  0           0  0  0
   -1.5542    1.0708    0.0000 C   0  0  0  0  0  0           0  0  0
    3.1083    0.0625    0.0000 O   0  0  0  0  0  0           0  0  0
    0.0167    1.8542    0.0000 O   0  0  0  0  0  0           0  0  0
   -2.2625    1.4833    0.0000 O   0  0  0  0  0  0           0  0  0
   -2.9833    0.2542    0.0000 O   0  0  0  0  0  0           0  0  0
    2.2625   -1.3583    0.0000 C   0  0  0  0  0  0           0  0  0
   -1.5667   -2.2375    0.0000 C   0  0  0  0  0  0           0  0  0
   -3.6958   -0.1583    0.0000 C   0  0  0  0  0  0           0  0  0
  2  1  1  0     0  0
  3  2  2  0     0  0
  4  1  1  0     0  0
  5 11  1  0     0  0
  6 14  2  0     0  0
  7  5  2  0     0  0
  8  9  1  0     0  0
  9  6  1  0     0  0
 10  1  2  0     0  0
 11  3  1  0     0  0
 12  2  1  0     0  0
 13  4  1  0     0  0
 14 10  1  0     0  0
 15  5  1  0     0  0
 16  7  1  0     0  0
 17 15  2  0     0  0
 18 17  1  0     0  0
 19  4  2  0     0  0
 20  8  2  0     0  0
 21 15  1  0     0  0
 22 10  1  0     0  0
 23 12  1  0     0  0
 24 21  2  0     0  0
 25 17  1  0     0  0
 26 14  1  0     0  0
 27 16  1  0     0  0
 28 25  1  0     0  0
 13 12  1  0     0  0
  6  3  1  0     0  0
  7  8  1  0     0  0
 18 16  2  0     0  0
M  END
>  <prID>
32

>  <IDDB>
12149

>  <pIC50_HIV_Integrase>
4.55129368

>  <Q>
-2.707007405

>  <Activity_Integrase>
Inactive_Integrase

NA
NA
NA
NA
$$$$

  Accelrys05311914342D 1   1.00000     0.00000     0

 33 37  0     0  0            999 V2000
    4.4250   -2.7458    0.0000 C   0  0  0  0  0  0           0  0  0
    7.5458   -2.8417    0.0000 C   0  0  0  0  0  0           0  0  0
    4.4250   -1.9084    0.0000 C   0  0  0  0  0  0           0  0  0
    8.2709   -3.2583    0.0000 C   0  0  0  0  0  0           0  0  0
    7.5458   -2.0042    0.0000 C   0  0  0  0  0  0           0  0  0
    3.7042   -3.1625    0.0000 C   0  0  0  0  0  0           0  0  0
    6.0583   -3.5666    0.0000 C   0  0  3  0  0  0           0  0  0
    3.7042   -1.4917    0.0000 C   0  0  0  0  0  0           0  0  0
    8.9958   -2.8417    0.0000 C   0  0  0  0  0  0           0  0  0
    8.2709   -1.5875    0.0000 C   0  0  0  0  0  0           0  0  0
    2.9833   -2.7458    0.0000 C   0  0  0  0  0  0           0  0  0
    2.9833   -1.9084    0.0000 C   0  0  0  0  0  0           0  0  0
    8.9958   -2.0042    0.0000 C   0  0  0  0  0  0           0  0  0
    6.8750   -1.6250    0.0000 O   0  0  0  0  0  0           0  0  0
    3.7042   -3.9958    0.0000 O   0  0  0  0  0  0           0  0  0
    3.7042   -0.6625    0.0000 O   0  0  0  0  0  0           0  0  0
    9.7125   -3.2583    0.0000 O   0  0  0  0  0  0           0  0  0
    6.0583   -4.4000    0.0000 C   0  0  0  0  0  0           0  0  0
    5.1125   -1.5708    0.0000 O   0  0  0  0  0  0           0  0  0
    8.2709   -4.0917    0.0000 O   0  0  0  0  0  0           0  0  0
    8.2709   -0.7583    0.0000 C   0  0  0  0  0  0           0  0  0
    2.2542   -3.1625    0.0000 C   0  0  0  0  0  0           0  0  0
    2.2542   -1.4917    0.0000 C   0  0  0  0  0  0           0  0  0
    9.7125   -1.5875    0.0000 C   0  0  0  0  0  0           0  0  0
    5.3459   -4.8125    0.0000 C   0  0  0  0  0  0           0  0  0
    6.7792   -4.8125    0.0000 C   0  0  0  0  0  0           0  0  0
    1.5417   -2.7458    0.0000 C   0  0  0  0  0  0           0  0  0
    8.9958   -0.3458    0.0000 C   0  0  0  0  0  0           0  0  0
    1.5417   -1.9084    0.0000 C   0  0  0  0  0  0           0  0  0
    9.7125   -0.7583    0.0000 C   0  0  0  0  0  0           0  0  0
    5.3459   -5.6500    0.0000 C   0  0  0  0  0  0           0  0  0
    6.7792   -5.6500    0.0000 C   0  0  0  0  0  0           0  0  0
    6.0583   -6.0667    0.0000 C   0  0  0  0  0  0           0  0  0
  2  7  1  0     0  0
  3  1  2  0     0  0
  4  2  2  0     0  0
  5  2  1  0     0  0
  6  1  1  0     0  0
  7  1  1  0     0  0
  8  3  1  0     0  0
  9  4  1  0     0  0
 10  5  1  0     0  0
 11  6  1  0     0  0
 12  8  1  0     0  0
 13  9  1  0     0  0
 14  5  2  0     0  0
 15  6  2  0     0  0
 16  8  2  0     0  0
 17  9  2  0     0  0
 18  7  1  0     0  0
 19  3  1  0     0  0
 20  4  1  0     0  0
 21 10  1  0     0  0
 22 11  1  0     0  0
 23 12  1  0     0  0
 24 13  1  0     0  0
 25 18  2  0     0  0
 26 18  1  0     0  0
 27 22  2  0     0  0
 28 21  2  0     0  0
 29 23  2  0     0  0
 30 24  2  0     0  0
 31 25  1  0     0  0
 32 26  2  0     0  0
 33 32  1  0     0  0
 12 11  2  0     0  0
 29 27  1  0     0  0
 33 31  2  0     0  0
 13 10  2  0     0  0
 30 28  1  0     0  0
M  END
>  <prID>
33

>  <IDDB>
12168

>  <pIC50_HIV_Integrase>
4.318758763

>  <Q>
0.147821633

>  <Activity_Integrase>
Inactive_Integrase

NA
NA
NA
NA
$$$$

  Accelrys05311914342D 1   1.00000     0.00000     0

 60 68  0     0  0            999 V2000
    4.1750   -1.1542    0.0000 C   0  0  0  0  0  0           0  0  0
    6.7709   -1.2625    0.0000 C   0  0  0  0  0  0           0  0  0
    6.7958   -5.7125    0.0000 C   0  0  0  0  0  0           0  0  0
    4.4625   -5.6583    0.0000 C   0  0  0  0  0  0           0  0  0
    4.1750   -0.3625    0.0000 C   0  0  0  0  0  0           0  0  0
    7.4708   -1.6625    0.0000 C   0  0  0  0  0  0           0  0  0
    6.7958   -6.5125    0.0000 C   0  0  0  0  0  0           0  0  0
    3.8375   -5.1333    0.0000 C   0  0  0  0  0  0           0  0  0
    7.4833   -5.3042    0.0000 C   0  0  0  0  0  0           0  0  0
    6.7709   -0.4583    0.0000 C   0  0  0  0  0  0           0  0  0
    4.3167   -6.4500    0.0000 C   0  0  0  0  0  0           0  0  0
    3.4916   -1.5667    0.0000 C   0  0  0  0  0  0           0  0  0
    5.7166   -1.8209    0.0000 C   0  0  3  0  0  0           0  0  0
    5.7042   -5.1666    0.0000 C   0  0  3  0  0  0           0  0  0
    8.1667   -1.2625    0.0000 C   0  0  0  0  0  0           0  0  0
    3.4916    0.0333    0.0000 C   0  0  0  0  0  0           0  0  0
    7.4833   -6.9250    0.0000 C   0  0  0  0  0  0           0  0  0
    3.0792   -5.4084    0.0000 C   0  0  0  0  0  0           0  0  0
    8.1917   -5.7125    0.0000 C   0  0  0  0  0  0           0  0  0
    2.7834   -1.1542    0.0000 C   0  0  0  0  0  0           0  0  0
    3.5625   -6.7375    0.0000 C   0  0  0  0  0  0           0  0  0
    7.4708   -0.0542    0.0000 C   0  0  0  0  0  0           0  0  0
    8.1667   -0.4583    0.0000 C   0  0  0  0  0  0           0  0  0
    2.7834   -0.3625    0.0000 C   0  0  0  0  0  0           0  0  0
    8.1917   -6.5125    0.0000 C   0  0  0  0  0  0           0  0  0
    2.9375   -6.2084    0.0000 C   0  0  0  0  0  0           0  0  0
    5.7042   -4.3583    0.0000 C   0  0  0  0  0  0           0  0  0
    5.7042   -2.7292    0.0000 C   0  0  0  0  0  0           0  0  0
    4.6833   -6.9750    0.0000 O   0  0  0  0  0  0           0  0  0
    7.4833   -4.4917    0.0000 O   0  0  0  0  0  0           0  0  0
    3.4916   -2.3625    0.0000 O   0  0  0  0  0  0           0  0  0
    6.1750   -0.1459    0.0000 O   0  0  0  0  0  0           0  0  0
    3.4916    0.8583    0.0000 O   0  0  0  0  0  0           0  0  0
    7.4833   -7.7375    0.0000 O   0  0  0  0  0  0           0  0  0
    8.8750   -1.6625    0.0000 O   0  0  0  0  0  0           0  0  0
    2.4583   -4.8875    0.0000 O   0  0  0  0  0  0           0  0  0
    7.4708   -2.4708    0.0000 O   0  0  0  0  0  0           0  0  0
    4.8666    0.0625    0.0000 O   0  0  0  0  0  0           0  0  0
    6.1500   -6.9167    0.0000 O   0  0  0  0  0  0           0  0  0
    4.0416   -4.4000    0.0000 O   0  0  0  0  0  0           0  0  0
    5.0083   -3.1417    0.0000 C   0  0  0  0  0  0           0  0  0
    6.4000   -3.1417    0.0000 C   0  0  0  0  0  0           0  0  0
    5.0083   -3.9584    0.0000 C   0  0  0  0  0  0           0  0  0
    6.4000   -3.9584    0.0000 C   0  0  0  0  0  0           0  0  0
    2.0958   -1.5667    0.0000 C   0  0  0  0  0  0           0  0  0
    7.4708    0.7500    0.0000 C   0  0  0  0  0  0           0  0  0
    3.4166   -7.5250    0.0000 C   0  0  0  0  0  0           0  0  0
    8.9125   -5.3042    0.0000 C   0  0  0  0  0  0           0  0  0
    8.8750   -0.0542    0.0000 C   0  0  0  0  0  0           0  0  0
    2.0958    0.0333    0.0000 C   0  0  0  0  0  0           0  0  0
    8.9125   -6.9250    0.0000 C   0  0  0  0  0  0           0  0  0
    2.1750   -6.4875    0.0000 C   0  0  0  0  0  0           0  0  0
    1.3917   -0.3625    0.0000 C   0  0  0  0  0  0           0  0  0
    8.8750    0.7500    0.0000 C   0  0  0  0  0  0           0  0  0
    8.1667    1.1583    0.0000 C   0  0  0  0  0  0           0  0  0
    9.5833   -5.7125    0.0000 C   0  0  0  0  0  0           0  0  0
    1.3917   -1.1542    0.0000 C   0  0  0  0  0  0           0  0  0
    2.6542   -7.7959    0.0000 C   0  0  0  0  0  0           0  0  0
    9.5833   -6.5125    0.0000 C   0  0  0  0  0  0           0  0  0
    2.0209   -7.2834    0.0000 C   0  0  0  0  0  0           0  0  0
  2 13  1  0     0  0
  3 14  1  0     0  0
  4 14  1  0     0  0
  5  1  2  0     0  0
  6  2  2  0     0  0
  7  3  2  0     0  0
  8  4  2  0     0  0
  9  3  1  0     0  0
 10  2  1  0     0  0
 11  4  1  0     0  0
 12  1  1  0     0  0
 13  1  1  0     0  0
 14 27  1  0     0  0
 15  6  1  0     0  0
 16  5  1  0     0  0
 17  7  1  0     0  0
 18  8  1  0     0  0
 19  9  1  0     0  0
 20 12  1  0     0  0
 21 11  1  0     0  0
 22 10  1  0     0  0
 23 15  1  0     0  0
 24 16  1  0     0  0
 25 17  1  0     0  0
 26 18  1  0     0  0
 27 44  1  0     0  0
 28 13  1  0     0  0
 29 11  2  0     0  0
 30  9  2  0     0  0
 31 12  2  0     0  0
 32 10  2  0     0  0
 33 16  2  0     0  0
 34 17  2  0     0  0
 35 15  2  0     0  0
 36 18  2  0     0  0
 37  6  1  0     0  0
 38  5  1  0     0  0
 39  7  1  0     0  0
 40  8  1  0     0  0
 41 28  2  0     0  0
 42 28  1  0     0  0
 43 41  1  0     0  0
 44 42  2  0     0  0
 45 20  1  0     0  0
 46 22  1  0     0  0
 47 21  1  0     0  0
 48 19  1  0     0  0
 49 23  1  0     0  0
 50 24  1  0     0  0
 51 25  1  0     0  0
 52 26  1  0     0  0
 53 50  2  0     0  0
 54 49  2  0     0  0
 55 46  2  0     0  0
 56 48  2  0     0  0
 57 45  2  0     0  0
 58 47  2  0     0  0
 59 51  2  0     0  0
 60 52  2  0     0  0
 24 20  2  0     0  0
 53 57  1  0     0  0
 27 43  2  0     0  0
 23 22  2  0     0  0
 54 55  1  0     0  0
 26 21  2  0     0  0
 25 19  2  0     0  0
 60 58  1  0     0  0
 59 56  1  0     0  0
M  END
>  <prID>
34

>  <IDDB>
12208

>  <pIC50_HIV_Integrase>
5.568636236

>  <Q>
-0.56075453

>  <Activity_Integrase>
Inactive_Integrase

NA
NA
NA
NA
$$$$

  Accelrys05311914342D 1   1.00000     0.00000     0

 35 39  0     0  0            999 V2000
    1.5958    0.4250    0.0000 C   0  0  0  0  0  0           0  0  0
    4.0208    0.3582    0.0000 C   0  0  0  0  0  0           0  0  0
    1.5958    1.2083    0.0000 C   0  0  0  0  0  0           0  0  0
    4.6958   -0.0291    0.0000 C   0  0  0  0  0  0           0  0  0
    4.0208    1.1375    0.0000 C   0  0  0  0  0  0           0  0  0
    0.9251    0.0375    0.0000 C   0  0  0  0  0  0           0  0  0
    2.9083   -0.1292    0.0000 C   0  0  3  0  0  0           0  0  0
    0.9251    1.5917    0.0000 C   0  0  0  0  0  0           0  0  0
    5.3792    0.3582    0.0000 C   0  0  0  0  0  0           0  0  0
    4.6958    1.5250    0.0000 C   0  0  0  0  0  0           0  0  0
    0.2542    0.4250    0.0000 C   0  0  0  0  0  0           0  0  0
    0.2542    1.2083    0.0000 C   0  0  0  0  0  0           0  0  0
    5.3792    1.1375    0.0000 C   0  0  0  0  0  0           0  0  0
    2.9208   -1.5250    0.0000 C   0  0  0  0  0  0           0  0  0
    3.2083    1.4959    0.0000 O   0  0  0  0  0  0           0  0  0
    0.9251   -0.7500    0.0000 O   0  0  0  0  0  0           0  0  0
    0.9251    2.3709    0.0000 O   0  0  0  0  0  0           0  0  0
    5.9416   -0.0499    0.0000 O   0  0  0  0  0  0           0  0  0
    2.3292    1.5542    0.0000 O   0  0  0  0  0  0           0  0  0
    4.6958   -0.8833    0.0000 O   0  0  0  0  0  0           0  0  0
    2.2459   -1.9125    0.0000 C   0  0  0  0  0  0           0  0  0
    3.5917   -1.9125    0.0000 C   0  0  0  0  0  0           0  0  0
    2.9208   -3.0791    0.0000 C   0  0  0  0  0  0           0  0  0
    3.5917   -2.6917    0.0000 C   0  0  0  0  0  0           0  0  0
    2.2459   -2.6917    0.0000 C   0  0  0  0  0  0           0  0  0
    2.9208   -3.8708    0.0000 Cl  0  0  0  0  0  0           0  0  0
    4.6958    2.3042    0.0000 C   0  0  0  0  0  0           0  0  0
   -0.4291    0.0375    0.0000 C   0  0  0  0  0  0           0  0  0
    6.0542    1.5250    0.0000 C   0  0  0  0  0  0           0  0  0
   -0.4291    1.5917    0.0000 C   0  0  0  0  0  0           0  0  0
    5.3792    2.7000    0.0000 C   0  0  0  0  0  0           0  0  0
   -1.1000    0.4250    0.0000 C   0  0  0  0  0  0           0  0  0
   -1.1000    1.2083    0.0000 C   0  0  0  0  0  0           0  0  0
    6.0542    2.3042    0.0000 C   0  0  0  0  0  0           0  0  0
    1.5459   -1.5084    0.0000 Cl  0  0  0  0  0  0           0  0  0
  2  7  1  0     0  0
  3  1  2  0     0  0
  4  2  2  0     0  0
  5  2  1  0     0  0
  6  1  1  0     0  0
  7  1  1  0     0  0
  8  3  1  0     0  0
  9  4  1  0     0  0
 10  5  1  0     0  0
 11  6  1  0     0  0
 12  8  1  0     0  0
 13  9  1  0     0  0
 14  7  1  0     0  0
 15  5  2  0     0  0
 16  6  2  0     0  0
 17  8  2  0     0  0
 18  9  2  0     0  0
 19  3  1  0     0  0
 20  4  1  0     0  0
 21 14  2  0     0  0
 22 14  1  0     0  0
 23 24  1  0     0  0
 24 22  2  0     0  0
 25 21  1  0     0  0
 26 23  1  0     0  0
 27 10  1  0     0  0
 28 11  1  0     0  0
 29 13  1  0     0  0
 30 12  1  0     0  0
 31 27  2  0     0  0
 32 28  2  0     0  0
 33 30  2  0     0  0
 34 29  2  0     0  0
 12 11  2  0     0  0
 23 25  2  0     0  0
 33 32  1  0     0  0
 13 10  2  0     0  0
 34 31  1  0     0  0
 21 35  1  0     0  0
M  END
>  <prID>
35

>  <IDDB>
12210

>  <pIC50_HIV_Integrase>
4.397940009

>  <Q>
-1.748401398

>  <Activity_Integrase>
Inactive_Integrase

NA
NA
NA
NA
$$$$

  Accelrys05311914342D 1   1.00000     0.00000     0

 35 39  0     0  0            999 V2000
    4.1791   -4.5166    0.0000 C   0  0  0  0  0  0           0  0  0
    7.2667   -4.6209    0.0000 C   0  0  0  0  0  0           0  0  0
    4.1791   -5.3125    0.0000 C   0  0  0  0  0  0           0  0  0
    7.2667   -5.4125    0.0000 C   0  0  0  0  0  0           0  0  0
    5.7959   -3.8334    0.0000 C   0  0  3  0  0  0           0  0  0
    7.9542   -4.2250    0.0000 C   0  0  0  0  0  0           0  0  0
    3.4916   -4.1208    0.0000 C   0  0  0  0  0  0           0  0  0
    3.4916   -5.7041    0.0000 C   0  0  0  0  0  0           0  0  0
    7.9542   -5.8084    0.0000 C   0  0  0  0  0  0           0  0  0
    8.6375   -4.6209    0.0000 C   0  0  0  0  0  0           0  0  0
    2.8125   -4.5208    0.0000 C   0  0  0  0  0  0           0  0  0
    2.8125   -5.3125    0.0000 C   0  0  0  0  0  0           0  0  0
    8.6375   -5.4084    0.0000 C   0  0  0  0  0  0           0  0  0
    5.7959   -2.4625    0.0000 C   0  0  0  0  0  0           0  0  0
    6.4459   -2.0625    0.0000 C   0  0  0  0  0  0           0  0  0
    6.4459   -1.2750    0.0000 C   0  0  0  0  0  0           0  0  0
    3.4875   -3.3375    0.0000 O   0  0  0  0  0  0           0  0  0
    7.9459   -3.4292    0.0000 O   0  0  0  0  0  0           0  0  0
    3.4875   -6.4958    0.0000 O   0  0  0  0  0  0           0  0  0
    7.9584   -6.7084    0.0000 O   0  0  0  0  0  0           0  0  0
    5.7667   -0.8792    0.0000 C   0  0  0  0  0  0           0  0  0
    5.0834   -2.0625    0.0000 C   0  0  0  0  0  0           0  0  0
    4.9250   -5.7417    0.0000 O   0  0  0  0  0  0           0  0  0
    6.5834   -5.8042    0.0000 O   0  0  0  0  0  0           0  0  0
    5.0834   -1.2792    0.0000 C   0  0  0  0  0  0           0  0  0
    7.1334   -0.8750    0.0000 Cl  0  0  0  0  0  0           0  0  0
    5.7584   -0.0875    0.0000 Cl  0  0  0  0  0  0           0  0  0
    2.1291   -4.1250    0.0000 C   0  0  0  0  0  0           0  0  0
    9.3167   -4.2250    0.0000 C   0  0  0  0  0  0           0  0  0
    9.3250   -5.8042    0.0000 C   0  0  0  0  0  0           0  0  0
    2.1291   -5.7041    0.0000 C   0  0  0  0  0  0           0  0  0
   10.0000   -4.6084    0.0000 C   0  0  0  0  0  0           0  0  0
    1.4500   -4.5208    0.0000 C   0  0  0  0  0  0           0  0  0
    1.4500   -5.3125    0.0000 C   0  0  0  0  0  0           0  0  0
   10.0042   -5.4084    0.0000 C   0  0  0  0  0  0           0  0  0
  2  5  1  0     0  0
  3  1  2  0     0  0
  4  2  2  0     0  0
  5  1  1  0     0  0
  6  2  1  0     0  0
  7  1  1  0     0  0
  8  3  1  0     0  0
  9  4  1  0     0  0
 10  6  1  0     0  0
 11  7  1  0     0  0
 12  8  1  0     0  0
 13  9  1  0     0  0
 14  5  1  0     0  0
 15 14  2  0     0  0
 16 15  1  0     0  0
 17  7  2  0     0  0
 18  6  2  0     0  0
 19  8  2  0     0  0
 20  9  2  0     0  0
 21 25  1  0     0  0
 22 14  1  0     0  0
 23  3  1  0     0  0
 24  4  1  0     0  0
 25 22  2  0     0  0
 26 16  1  0     0  0
 27 21  1  0     0  0
 28 11  1  0     0  0
 29 10  1  0     0  0
 30 13  1  0     0  0
 31 12  1  0     0  0
 32 29  2  0     0  0
 33 28  2  0     0  0
 34 31  2  0     0  0
 35 30  2  0     0  0
 12 11  2  0     0  0
 34 33  1  0     0  0
 21 16  2  0     0  0
 13 10  2  0     0  0
 35 32  1  0     0  0
M  END
>  <prID>
36

>  <IDDB>
12211

>  <pIC50_HIV_Integrase>
4.283996656

>  <Q>
-1.688042425

>  <Activity_Integrase>
Inactive_Integrase

NA
NA
NA
NA
$$$$

  Accelrys05311914342D 1   1.00000     0.00000     0

 37 41  0     0  0            999 V2000
    4.6458   -1.9042    0.0000 C   0  0  0  0  0  0           0  0  0
    7.3375   -1.9208    0.0000 C   0  0  0  0  0  0           0  0  0
    4.6458   -1.0791    0.0000 C   0  0  0  0  0  0           0  0  0
    8.0583   -2.3375    0.0000 C   0  0  0  0  0  0           0  0  0
    7.3375   -1.0958    0.0000 C   0  0  0  0  0  0           0  0  0
    3.9334   -2.3209    0.0000 C   0  0  0  0  0  0           0  0  0
    6.0667   -2.5334    0.0000 C   0  0  3  0  0  0           0  0  0
    3.9334   -0.6750    0.0000 C   0  0  0  0  0  0           0  0  0
    8.7625   -1.9208    0.0000 C   0  0  0  0  0  0           0  0  0
    8.0583   -0.6917    0.0000 C   0  0  0  0  0  0           0  0  0
    3.2125   -1.9042    0.0000 C   0  0  0  0  0  0           0  0  0
    3.2125   -1.0791    0.0000 C   0  0  0  0  0  0           0  0  0
    8.7625   -1.0958    0.0000 C   0  0  0  0  0  0           0  0  0
    6.0667   -3.3667    0.0000 C   0  0  0  0  0  0           0  0  0
    6.6750   -0.7416    0.0000 O   0  0  0  0  0  0           0  0  0
    3.9334   -3.1542    0.0000 O   0  0  0  0  0  0           0  0  0
    6.7750   -6.2500    0.0000 C   0  0  0  0  0  0           0  0  0
    9.4709   -2.3375    0.0000 O   0  0  0  0  0  0           0  0  0
    3.9334    0.1541    0.0000 O   0  0  0  0  0  0           0  0  0
    6.0667   -5.8375    0.0000 N   0  0  0  0  0  0           0  0  0
    5.3292   -0.6833    0.0000 O   0  0  0  0  0  0           0  0  0
    8.0583   -3.1709    0.0000 O   0  0  0  0  0  0           0  0  0
    7.4958   -5.8375    0.0000 O   0  0  0  0  0  0           0  0  0
    5.3583   -3.7709    0.0000 C   0  0  0  0  0  0           0  0  0
    6.7750   -3.7709    0.0000 C   0  0  0  0  0  0           0  0  0
    6.0667   -5.0125    0.0000 C   0  0  0  0  0  0           0  0  0
    6.7750   -4.5959    0.0000 C   0  0  0  0  0  0           0  0  0
    5.3583   -4.5959    0.0000 C   0  0  0  0  0  0           0  0  0
    8.0583    0.1375    0.0000 C   0  0  0  0  0  0           0  0  0
    2.4959   -2.3209    0.0000 C   0  0  0  0  0  0           0  0  0
    9.4709   -0.6917    0.0000 C   0  0  0  0  0  0           0  0  0
    2.4959   -0.6750    0.0000 C   0  0  0  0  0  0           0  0  0
    6.7750   -7.0709    0.0000 C   0  0  0  0  0  0           0  0  0
    9.4709    0.1375    0.0000 C   0  0  0  0  0  0           0  0  0
    8.7625    0.5500    0.0000 C   0  0  0  0  0  0           0  0  0
    1.7875   -1.9042    0.0000 C   0  0  0  0  0  0           0  0  0
    1.7875   -1.0791    0.0000 C   0  0  0  0  0  0           0  0  0
  2  7  1  0     0  0
  3  1  2  0     0  0
  4  2  2  0     0  0
  5  2  1  0     0  0
  6  1  1  0     0  0
  7  1  1  0     0  0
  8  3  1  0     0  0
  9  4  1  0     0  0
 10  5  1  0     0  0
 11  6  1  0     0  0
 12  8  1  0     0  0
 13  9  1  0     0  0
 14  7  1  0     0  0
 15  5  2  0     0  0
 16  6  2  0     0  0
 17 20  1  0     0  0
 18  9  2  0     0  0
 19  8  2  0     0  0
 20 26  1  0     0  0
 21  3  1  0     0  0
 22  4  1  0     0  0
 23 17  2  0     0  0
 24 14  2  0     0  0
 25 14  1  0     0  0
 26 28  2  0     0  0
 27 25  2  0     0  0
 28 24  1  0     0  0
 29 10  1  0     0  0
 30 11  1  0     0  0
 31 13  1  0     0  0
 32 12  1  0     0  0
 33 17  1  0     0  0
 34 31  2  0     0  0
 35 29  2  0     0  0
 36 30  2  0     0  0
 37 32  2  0     0  0
 12 11  2  0     0  0
 26 27  1  0     0  0
 37 36  1  0     0  0
 13 10  2  0     0  0
 34 35  1  0     0  0
M  END
>  <prID>
37

>  <IDDB>
12212

>  <pIC50_HIV_Integrase>
4.107905397

>  <Q>
-1.120233156

>  <Activity_Integrase>
Inactive_Integrase

NA
NA
NA
NA
$$$$

  Accelrys05311914342D 1   1.00000     0.00000     0

 47 51  0     0  0            999 V2000
    7.8417   -3.3834    0.0000 C   0  0  1  0  0  0           0  0  0
    9.2583   -3.3834    0.0000 C   0  0  0  0  0  0           0  0  0
    6.4458   -3.3834    0.0000 C   0  0  0  0  0  0           0  0  0
    8.5541   -3.7833    0.0000 C   0  0  0  0  0  0           0  0  0
    7.1459   -3.7833    0.0000 C   0  0  0  0  0  0           0  0  0
    7.8417   -2.5625    0.0000 C   0  0  1  0  0  0           0  0  0
    6.4458   -2.5625    0.0000 C   0  0  0  0  0  0           0  0  0
    9.9625   -3.7833    0.0000 C   0  0  0  0  0  0           0  0  0
    9.2583   -2.5625    0.0000 C   0  0  2  0  0  0           0  0  0
   10.6708   -3.3834    0.0000 C   0  0  0  0  0  0           0  0  0
    9.9625   -2.1584    0.0000 C   0  0  2  0  0  0           0  0  0
   10.6708   -2.5625    0.0000 C   0  0  0  0  0  0           0  0  0
    1.5250   -2.1584    0.0000 C   0  0  0  0  0  0           0  0  0
    7.1459   -2.1584    0.0000 C   0  0  2  0  0  0           0  0  0
    0.8167   -2.5625    0.0000 N   0  0  0  0  0  0           0  0  0
    5.7417   -3.7833    0.0000 C   0  0  0  0  0  0           0  0  0
    8.5541   -2.1584    0.0000 C   0  0  0  0  0  0           0  0  0
    2.2292   -2.5625    0.0000 N   0  0  3  0  0  0           0  0  0
    0.1250   -2.1584    0.0000 C   0  0  0  0  0  0           0  0  0
    5.0417   -3.3834    0.0000 N   0  0  0  0  0  0           0  0  0
    3.6458   -3.3834    0.0000 N   0  0  3  0  0  0           0  0  0
    1.5250   -1.3417    0.0000 N   0  0  0  0  0  0           0  0  0
    4.3458   -3.7833    0.0000 C   0  0  0  0  0  0           0  0  0
    7.1459   -4.5958    0.0000 O   0  0  0  0  0  0           0  0  0
    9.9625   -4.5958    0.0000 O   0  0  0  0  0  0           0  0  0
    7.1459   -1.3417    0.0000 N   0  0  3  0  0  0           0  0  0
   -0.5792   -2.5625    0.0000 N   0  0  0  0  0  0           0  0  0
   11.3583   -3.7833    0.0000 C   0  0  0  0  0  0           0  0  0
    7.8417   -4.1917    0.0000 O   0  0  0  0  0  0           0  0  0
    2.2292   -3.3834    0.0000 C   0  0  0  0  0  0           0  0  0
    2.9250   -2.1584    0.0000 C   0  0  0  0  0  0           0  0  0
    5.7417   -4.5958    0.0000 O   0  0  0  0  0  0           0  0  0
    8.5541   -4.5958    0.0000 O   0  0  0  0  0  0           0  0  0
    5.7417   -2.1584    0.0000 O   0  0  0  0  0  0           0  0  0
    9.4875   -1.1041    0.0000 O   0  0  0  0  0  0           0  0  0
    0.1250   -1.3417    0.0000 N   0  0  0  0  0  0           0  0  0
    3.6458   -2.5625    0.0000 C   0  0  0  0  0  0           0  0  0
    2.9250   -3.7833    0.0000 C   0  0  0  0  0  0           0  0  0
   11.3583   -2.1584    0.0000 C   0  0  0  0  0  0           0  0  0
   10.6208   -1.3542    0.0000 C   0  0  0  0  0  0           0  0  0
   11.3583   -4.5958    0.0000 O   0  0  0  0  0  0           0  0  0
   12.0750   -2.5625    0.0000 C   0  0  0  0  0  0           0  0  0
   12.0750   -3.3834    0.0000 C   0  0  0  0  0  0           0  0  0
    7.8250   -0.6583    0.0000 C   0  0  0  0  0  0           0  0  0
    6.4708   -0.5542    0.0000 C   0  0  0  0  0  0           0  0  0
    7.7958   -1.8084    0.0000 H   0  0  0  0  0  0           0  0  0
    9.2750   -1.8459    0.0000 H   0  0  0  0  0  0           0  0  0
  2  4  2  0     0  0
  3  5  1  0     0  0
  4  1  1  0     0  0
  5  1  1  0     0  0
  6  1  1  0     0  0
  7  3  2  0     0  0
  8  2  1  0     0  0
  9  2  1  0     0  0
 10  8  1  0     0  0
 11  9  1  0     0  0
 12 11  1  0     0  0
 13 18  1  0     0  0
 14  6  1  0     0  0
 15 13  1  0     0  0
 16  3  1  0     0  0
 17  6  1  0     0  0
 18 31  1  0     0  0
 19 15  1  0     0  0
 20 16  1  0     0  0
 21 23  1  0     0  0
 22 13  2  0     0  0
 23 20  1  0     0  0
 24  5  2  0     0  0
 25  8  2  0     0  0
 14 26  1  6     0  0
 27 19  2  0     0  0
 28 10  2  0     0  0
  1 29  1  6     0  0
 30 38  1  0     0  0
 31 37  1  0     0  0
 32 16  2  0     0  0
 33  4  1  0     0  0
 34  7  1  0     0  0
 11 35  1  1     0  0
 36 19  1  0     0  0
 37 21  1  0     0  0
 38 21  1  0     0  0
 39 12  2  0     0  0
 11 40  1  6     0  0
 41 28  1  0     0  0
 42 39  1  0     0  0
 43 28  1  0     0  0
 44 26  1  0     0  0
 45 26  1  0     0  0
  6 46  1  6     0  0
  9 47  1  6     0  0
  7 14  1  0     0  0
  9 17  1  0     0  0
 10 12  1  0     0  0
 43 42  2  0     0  0
 18 30  1  0     0  0
M  END
>  <prID>
38

>  <IDDB>
12217

>  <pIC50_HIV_Integrase>
6.522878745

>  <Q>
-8.728673852

>  <Activity_Integrase>
Active_Integrase

NA
NA
NA
NA
$$$$

  Accelrys05311914342D 1   1.00000     0.00000     0

 32 35  0     0  0            999 V2000
    5.2167   -2.0875    0.0000 C   0  0  0  0  0  0           0  0  0
    6.2084   -3.8411    0.0000 C   0  0  0  0  0  0           0  0  0
    5.2167   -1.2833    0.0000 C   0  0  0  0  0  0           0  0  0
    6.9163   -4.2371    0.0000 C   0  0  0  0  0  0           0  0  0
    5.5273   -4.2491    0.0000 C   0  0  0  0  0  0           0  0  0
    4.5250   -2.4917    0.0000 C   0  0  0  0  0  0           0  0  0
    6.2208   -2.6541    0.0000 C   0  0  3  0  0  0           0  0  0
    4.5250   -0.8792    0.0000 C   0  0  0  0  0  0           0  0  0
    6.9247   -5.0503    0.0000 C   0  0  0  0  0  0           0  0  0
    5.5240   -5.0562    0.0000 C   0  0  0  0  0  0           0  0  0
    3.8208   -2.0875    0.0000 C   0  0  0  0  0  0           0  0  0
    3.8208   -1.2833    0.0000 C   0  0  0  0  0  0           0  0  0
    6.2232   -5.4549    0.0000 C   0  0  0  0  0  0           0  0  0
    6.9166   -2.2501    0.0000 C   0  0  0  0  0  0           0  0  0
    4.8664   -3.9012    0.0000 O   0  0  0  0  0  0           0  0  0
    4.5125   -3.2625    0.0000 O   0  0  0  0  0  0           0  0  0
    4.5250   -0.0750    0.0000 O   0  0  0  0  0  0           0  0  0
    7.6156   -5.4477    0.0000 O   0  0  0  0  0  0           0  0  0
    6.9166   -1.4458    0.0000 O   0  0  0  0  0  0           0  0  0
    5.9083   -0.8792    0.0000 O   0  0  0  0  0  0           0  0  0
    7.6077   -3.8435    0.0000 O   0  0  0  0  0  0           0  0  0
    7.6166   -2.6541    0.0000 O   0  0  0  0  0  0           0  0  0
    4.8305   -5.4628    0.0000 C   0  0  0  0  0  0           0  0  0
    3.1166   -2.4917    0.0000 C   0  0  0  0  0  0           0  0  0
    3.1166   -0.8792    0.0000 C   0  0  0  0  0  0           0  0  0
    6.2254   -6.2544    0.0000 C   0  0  0  0  0  0           0  0  0
    8.3167   -2.2501    0.0000 C   0  0  0  0  0  0           0  0  0
    2.4292   -2.0875    0.0000 C   0  0  0  0  0  0           0  0  0
    4.8403   -6.2679    0.0000 C   0  0  0  0  0  0           0  0  0
    2.4292   -1.2833    0.0000 C   0  0  0  0  0  0           0  0  0
    5.5340   -6.6733    0.0000 C   0  0  0  0  0  0           0  0  0
    9.0084   -2.6541    0.0000 C   0  0  0  0  0  0           0  0  0
  2  7  1  0     0  0
  3  1  2  0     0  0
  4  2  2  0     0  0
  5  2  1  0     0  0
  6  1  1  0     0  0
  7  1  1  0     0  0
  8  3  1  0     0  0
  9  4  1  0     0  0
 10  5  1  0     0  0
 11  6  1  0     0  0
 12  8  1  0     0  0
 13  9  1  0     0  0
 14  7  1  0     0  0
 15  5  2  0     0  0
 16  6  2  0     0  0
 17  8  2  0     0  0
 18  9  2  0     0  0
 19 14  2  0     0  0
 20  3  1  0     0  0
 21  4  1  0     0  0
 22 14  1  0     0  0
 23 10  1  0     0  0
 24 11  1  0     0  0
 25 12  1  0     0  0
 26 13  1  0     0  0
 27 22  1  0     0  0
 28 24  2  0     0  0
 29 23  2  0     0  0
 30 25  2  0     0  0
 31 26  2  0     0  0
 32 27  1  0     0  0
 12 11  2  0     0  0
 30 28  1  0     0  0
 13 10  2  0     0  0
 31 29  1  0     0  0
M  END
>  <prID>
39

>  <IDDB>
12218

>  <pIC50_HIV_Integrase>
4.22184875

>  <Q>
-1.337282362

>  <Activity_Integrase>
Inactive_Integrase

NA
NA
NA
NA
$$$$

  Accelrys05311914342D 1   1.00000     0.00000     0

 37 41  0     0  0            999 V2000
   11.1000   -2.5167    0.0000 C   0  0  0  0  0  0           0  0  0
   13.7000   -2.5292    0.0000 C   0  0  0  0  0  0           0  0  0
   11.1000   -1.7167    0.0000 C   0  0  0  0  0  0           0  0  0
   14.3958   -2.9375    0.0000 C   0  0  0  0  0  0           0  0  0
   13.7000   -1.7333    0.0000 C   0  0  0  0  0  0           0  0  0
   10.4125   -2.9209    0.0000 C   0  0  0  0  0  0           0  0  0
   12.4750   -3.1208    0.0000 C   0  0  3  0  0  0           0  0  0
   10.4125   -1.3291    0.0000 C   0  0  0  0  0  0           0  0  0
   15.0749   -2.5292    0.0000 C   0  0  0  0  0  0           0  0  0
   14.3958   -1.3458    0.0000 C   0  0  0  0  0  0           0  0  0
    9.7166   -2.5167    0.0000 C   0  0  0  0  0  0           0  0  0
    9.7166   -1.7167    0.0000 C   0  0  0  0  0  0           0  0  0
   15.0749   -1.7333    0.0000 C   0  0  0  0  0  0           0  0  0
   12.4750   -3.9251    0.0000 C   0  0  0  0  0  0           0  0  0
   13.0624   -1.3917    0.0000 O   0  0  0  0  0  0           0  0  0
   10.4125   -3.7250    0.0000 O   0  0  0  0  0  0           0  0  0
   15.7625   -2.9375    0.0000 O   0  0  0  0  0  0           0  0  0
   10.4125   -0.5292    0.0000 O   0  0  0  0  0  0           0  0  0
   11.7583   -1.3375    0.0000 O   0  0  0  0  0  0           0  0  0
   14.3958   -3.7417    0.0000 O   0  0  0  0  0  0           0  0  0
   11.7874   -4.3167    0.0000 C   0  0  0  0  0  0           0  0  0
   13.1583   -4.3167    0.0000 C   0  0  0  0  0  0           0  0  0
   12.4750   -5.5166    0.0000 C   0  0  0  0  0  0           0  0  0
   13.1583   -5.1167    0.0000 C   0  0  0  0  0  0           0  0  0
   11.7874   -5.1167    0.0000 C   0  0  0  0  0  0           0  0  0
   14.3958   -0.5459    0.0000 C   0  0  0  0  0  0           0  0  0
    9.0250   -2.9209    0.0000 C   0  0  0  0  0  0           0  0  0
   15.7625   -1.3458    0.0000 C   0  0  0  0  0  0           0  0  0
    9.0250   -1.3291    0.0000 C   0  0  0  0  0  0           0  0  0
   15.7625   -0.5459    0.0000 C   0  0  0  0  0  0           0  0  0
   15.0749   -0.1459    0.0000 C   0  0  0  0  0  0           0  0  0
    8.3416   -2.5167    0.0000 C   0  0  0  0  0  0           0  0  0
    8.3416   -1.7167    0.0000 C   0  0  0  0  0  0           0  0  0
   11.0708   -5.5208    0.0000 O   0  0  0  0  0  0           0  0  0
   10.3639   -5.1066    0.0000 C   0  0  0  0  0  0           0  0  0
   12.4750   -6.3375    0.0000 O   0  0  0  0  0  0           0  0  0
   13.8708   -5.5292    0.0000 Br  0  0  0  0  0  0           0  0  0
  7  1  1  0     0  0
  8  3  1  0     0  0
  9  4  1  0     0  0
 10  5  1  0     0  0
 11  6  1  0     0  0
 12  8  1  0     0  0
 13  9  1  0     0  0
 14  7  1  0     0  0
 15  5  2  0     0  0
 16  6  2  0     0  0
 17  9  2  0     0  0
 18  8  2  0     0  0
 19  3  1  0     0  0
 20  4  1  0     0  0
 21 14  2  0     0  0
 22 14  1  0     0  0
 23 25  2  0     0  0
 24 22  2  0     0  0
 25 21  1  0     0  0
 26 10  1  0     0  0
 27 11  1  0     0  0
 28 13  1  0     0  0
 29 12  1  0     0  0
 30 28  2  0     0  0
 31 26  2  0     0  0
 32 27  2  0     0  0
 33 29  2  0     0  0
 12 11  2  0     0  0
 23 24  1  0     0  0
 33 32  1  0     0  0
 13 10  2  0     0  0
 30 31  1  0     0  0
 25 34  1  0     0  0
  2  7  1  0     0  0
 34 35  1  0     0  0
  3  1  2  0     0  0
 23 36  1  0     0  0
  4  2  2  0     0  0
  5  2  1  0     0  0
  6  1  1  0     0  0
 24 37  1  0     0  0
M  END
>  <prID>
40

>  <IDDB>
12230

>  <pIC50_HIV_Integrase>
4.698970004

>  <Q>
-0.93219639

>  <Activity_Integrase>
Inactive_Integrase

NA
NA
NA
NA
$$$$

  Accelrys05311914342D 1   1.00000     0.00000     0

 35 39  0     0  0            999 V2000
    4.9875   -2.3083    0.0000 C   0  0  0  0  0  0           0  0  0
    7.3958   -2.2792    0.0000 C   0  0  0  0  0  0           0  0  0
    4.9875   -1.4834    0.0000 C   0  0  0  0  0  0           0  0  0
    8.1084   -2.6875    0.0000 C   0  0  0  0  0  0           0  0  0
    6.0792   -2.9959    0.0000 C   0  0  3  0  0  0           0  0  0
    7.3958   -1.4542    0.0000 C   0  0  0  0  0  0           0  0  0
    4.2834   -2.7167    0.0000 C   0  0  0  0  0  0           0  0  0
    4.2834   -1.0750    0.0000 C   0  0  0  0  0  0           0  0  0
    8.8250   -2.2792    0.0000 C   0  0  0  0  0  0           0  0  0
    8.1084   -1.0458    0.0000 C   0  0  0  0  0  0           0  0  0
    3.5667   -2.3083    0.0000 C   0  0  0  0  0  0           0  0  0
    3.5667   -1.4834    0.0000 C   0  0  0  0  0  0           0  0  0
    8.8250   -1.4542    0.0000 C   0  0  0  0  0  0           0  0  0
    6.0625   -3.7625    0.0000 C   0  0  0  0  0  0           0  0  0
    6.7708   -4.1750    0.0000 C   0  0  0  0  0  0           0  0  0
    6.6959   -1.1542    0.0000 O   0  0  0  0  0  0           0  0  0
    4.2834   -3.5334    0.0000 O   0  0  0  0  0  0           0  0  0
    4.2834   -0.2500    0.0000 O   0  0  0  0  0  0           0  0  0
    9.5291   -2.6875    0.0000 O   0  0  0  0  0  0           0  0  0
    5.6417   -1.1542    0.0000 O   0  0  0  0  0  0           0  0  0
    8.1084   -3.5042    0.0000 O   0  0  0  0  0  0           0  0  0
    6.7708   -4.9959    0.0000 C   0  0  0  0  0  0           0  0  0
    8.1084   -0.2209    0.0000 C   0  0  0  0  0  0           0  0  0
    2.8500   -2.7167    0.0000 C   0  0  0  0  0  0           0  0  0
    2.8500   -1.0750    0.0000 C   0  0  0  0  0  0           0  0  0
    9.5291   -1.0458    0.0000 C   0  0  0  0  0  0           0  0  0
    6.0625   -5.4083    0.0000 C   0  0  0  0  0  0           0  0  0
    7.4834   -5.4083    0.0000 C   0  0  0  0  0  0           0  0  0
    2.1458   -2.3083    0.0000 C   0  0  0  0  0  0           0  0  0
    8.8250    0.1792    0.0000 C   0  0  0  0  0  0           0  0  0
    2.1458   -1.4834    0.0000 C   0  0  0  0  0  0           0  0  0
    9.5291   -0.2209    0.0000 C   0  0  0  0  0  0           0  0  0
    6.0625   -6.2292    0.0000 C   0  0  0  0  0  0           0  0  0
    7.4834   -6.2292    0.0000 C   0  0  0  0  0  0           0  0  0
    6.7708   -6.6417    0.0000 C   0  0  0  0  0  0           0  0  0
  2  5  1  0     0  0
  3  1  2  0     0  0
  4  2  2  0     0  0
  5  1  1  0     0  0
  6  2  1  0     0  0
  7  1  1  0     0  0
  8  3  1  0     0  0
  9  4  1  0     0  0
 10  6  1  0     0  0
 11  7  1  0     0  0
 12  8  1  0     0  0
 13  9  1  0     0  0
 14  5  1  0     0  0
 15 14  2  0     0  0
 16  6  2  0     0  0
 17  7  2  0     0  0
 18  8  2  0     0  0
 19  9  2  0     0  0
 20  3  1  0     0  0
 21  4  1  0     0  0
 22 15  1  0     0  0
 23 10  1  0     0  0
 24 11  1  0     0  0
 25 12  1  0     0  0
 26 13  1  0     0  0
 27 22  2  0     0  0
 28 22  1  0     0  0
 29 24  2  0     0  0
 30 23  2  0     0  0
 31 25  2  0     0  0
 32 26  2  0     0  0
 33 27  1  0     0  0
 34 28  2  0     0  0
 35 34  1  0     0  0
 12 11  2  0     0  0
 31 29  1  0     0  0
 13 10  2  0     0  0
 35 33  2  0     0  0
 32 30  1  0     0  0
M  END
>  <prID>
41

>  <IDDB>
12231

>  <pIC50_HIV_Integrase>
4.045757491

>  <Q>
0.490147694

>  <Activity_Integrase>
Inactive_Integrase

NA
NA
NA
NA
$$$$

  Accelrys05311914342D 1   1.00000     0.00000     0

 35 39  0     0  0            999 V2000
   -3.6000   -0.1875    0.0000 C   0  0  0  0  0  0           0  0  0
   -1.2375   -0.1625    0.0000 C   0  0  0  0  0  0           0  0  0
   -3.6000    0.6208    0.0000 C   0  0  0  0  0  0           0  0  0
   -0.5416   -0.5625    0.0000 C   0  0  0  0  0  0           0  0  0
   -2.5291   -0.8626    0.0000 C   0  0  3  0  0  0           0  0  0
   -1.2375    0.6500    0.0000 C   0  0  0  0  0  0           0  0  0
   -4.2916   -0.5875    0.0000 C   0  0  0  0  0  0           0  0  0
   -4.2916    1.0208    0.0000 C   0  0  0  0  0  0           0  0  0
    0.1625   -0.1625    0.0000 C   0  0  0  0  0  0           0  0  0
   -0.5416    1.0500    0.0000 C   0  0  0  0  0  0           0  0  0
   -4.9916   -0.1875    0.0000 C   0  0  0  0  0  0           0  0  0
   -4.9916    0.6208    0.0000 C   0  0  0  0  0  0           0  0  0
    0.1625    0.6500    0.0000 C   0  0  0  0  0  0           0  0  0
   -2.5458   -1.6125    0.0000 C   0  0  0  0  0  0           0  0  0
   -1.8500   -2.0208    0.0000 C   0  0  0  0  0  0           0  0  0
   -1.9249    0.9416    0.0000 O   0  0  0  0  0  0           0  0  0
   -4.2916   -1.3917    0.0000 O   0  0  0  0  0  0           0  0  0
   -4.2916    1.8292    0.0000 O   0  0  0  0  0  0           0  0  0
    0.8541   -0.5625    0.0000 O   0  0  0  0  0  0           0  0  0
   -2.9583    0.9416    0.0000 O   0  0  0  0  0  0           0  0  0
   -0.5416   -1.3625    0.0000 O   0  0  0  0  0  0           0  0  0
   -1.8500   -2.8251    0.0000 C   0  0  0  0  0  0           0  0  0
   -0.5416    1.8583    0.0000 C   0  0  0  0  0  0           0  0  0
   -5.6958   -0.5875    0.0000 C   0  0  0  0  0  0           0  0  0
   -5.6958    1.0208    0.0000 C   0  0  0  0  0  0           0  0  0
    0.8541    1.0500    0.0000 C   0  0  0  0  0  0           0  0  0
   -2.5458   -3.2291    0.0000 C   0  0  0  0  0  0           0  0  0
   -1.1541   -3.2291    0.0000 C   0  0  0  0  0  0           0  0  0
   -6.3916   -0.1875    0.0000 C   0  0  0  0  0  0           0  0  0
    0.1625    2.2500    0.0000 C   0  0  0  0  0  0           0  0  0
   -6.3916    0.6208    0.0000 C   0  0  0  0  0  0           0  0  0
    0.8541    1.8583    0.0000 C   0  0  0  0  0  0           0  0  0
   -2.5458   -4.0334    0.0000 C   0  0  0  0  0  0           0  0  0
   -1.1541   -4.0334    0.0000 C   0  0  0  0  0  0           0  0  0
   -1.8500   -4.4375    0.0000 C   0  0  0  0  0  0           0  0  0
  2  5  1  0     0  0
  3  1  2  0     0  0
  4  2  2  0     0  0
  5  1  1  0     0  0
  6  2  1  0     0  0
  7  1  1  0     0  0
  8  3  1  0     0  0
  9  4  1  0     0  0
 10  6  1  0     0  0
 11  7  1  0     0  0
 12  8  1  0     0  0
 13  9  1  0     0  0
 14  5  1  0     0  0
 15 14  1  0     0  0
 16  6  2  0     0  0
 17  7  2  0     0  0
 18  8  2  0     0  0
 19  9  2  0     0  0
 20  3  1  0     0  0
 21  4  1  0     0  0
 22 15  1  0     0  0
 23 10  1  0     0  0
 24 11  1  0     0  0
 25 12  1  0     0  0
 26 13  1  0     0  0
 27 22  2  0     0  0
 28 22  1  0     0  0
 29 24  2  0     0  0
 30 23  2  0     0  0
 31 25  2  0     0  0
 32 26  2  0     0  0
 33 27  1  0     0  0
 34 28  2  0     0  0
 35 34  1  0     0  0
 12 11  2  0     0  0
 31 29  1  0     0  0
 13 10  2  0     0  0
 35 33  2  0     0  0
 32 30  1  0     0  0
M  END
>  <prID>
42

>  <IDDB>
12232

>  <pIC50_HIV_Integrase>
4.142667504

>  <Q>
-0.351543621

>  <Activity_Integrase>
Inactive_Integrase

NA
NA
NA
NA
$$$$

  Accelrys05311914342D 1   1.00000     0.00000     0

 32 35  0     0  0            999 V2000
    2.9000   -0.4625    0.0000 S   0  0  3  0  0  0           0  0  0
   -3.6458   -0.0792    0.0000 N   0  0  3  0  0  0           0  0  0
   -2.8125    0.3208    0.0000 C   0  0  0  0  0  0           0  0  0
   -3.5167   -0.9833    0.0000 N   0  0  0  0  0  0           0  0  0
   -2.1833   -0.3375    0.0000 C   0  0  3  0  0  0           0  0  0
    3.0167    0.4417    0.0000 N   0  0  0  0  0  0           0  0  0
    3.8583    0.7917    0.0000 C   0  0  0  0  0  0           0  0  0
   -2.6208   -1.1417    0.0000 C   0  0  0  0  0  0           0  0  0
   -1.2792   -0.2208    0.0000 N   0  0  0  0  0  0           0  0  0
    4.6417    0.3208    0.0000 C   0  0  0  0  0  0           0  0  0
    4.0792    1.6833    0.0000 O   0  0  0  0  0  0           0  0  0
    5.3375    0.9208    0.0000 C   0  0  0  0  0  0           0  0  0
    4.9833    1.7625    0.0000 C   0  0  0  0  0  0           0  0  0
    1.9958   -0.5792    0.0000 C   0  0  0  0  0  0           0  0  0
   -0.7208   -0.9417    0.0000 N   0  0  0  0  0  0           0  0  0
    2.9417   -1.3750    0.0000 O   0  0  0  0  0  0           0  0  0
    3.8167   -0.4958    0.0000 O   0  0  0  0  0  0           0  0  0
   -2.6458    1.2125    0.0000 O   0  0  0  0  0  0           0  0  0
   -4.4500    0.3500    0.0000 C   0  0  0  0  0  0           0  0  0
    1.6500   -1.4333    0.0000 C   0  0  0  0  0  0           0  0  0
    1.4375    0.1417    0.0000 C   0  0  0  0  0  0           0  0  0
    0.1875   -0.8250    0.0000 C   0  0  0  0  0  0           0  0  0
    0.7417   -1.5500    0.0000 C   0  0  0  0  0  0           0  0  0
    0.5333    0.0167    0.0000 C   0  0  0  0  0  0           0  0  0
   -2.2292   -1.9667    0.0000 C   0  0  0  0  0  0           0  0  0
    4.7167   -0.5875    0.0000 C   0  0  0  0  0  0           0  0  0
    6.2292    0.7000    0.0000 C   0  0  0  0  0  0           0  0  0
   -4.4625    1.2667    0.0000 C   0  0  0  0  0  0           0  0  0
   -5.2250   -0.1208    0.0000 C   0  0  0  0  0  0           0  0  0
   -6.0250    0.3083    0.0000 C   0  0  0  0  0  0           0  0  0
   -5.2750    1.7042    0.0000 C   0  0  0  0  0  0           0  0  0
   -6.0417    1.2208    0.0000 C   0  0  0  0  0  0           0  0  0
  2  3  1  0     0  0
  3  5  1  0     0  0
  4  8  2  0     0  0
  5  9  1  0     0  0
  6  1  1  0     0  0
  7  6  1  0     0  0
  8  5  1  0     0  0
  9 15  2  0     0  0
 10  7  2  0     0  0
 11  7  1  0     0  0
 12 10  1  0     0  0
 13 11  1  0     0  0
 14  1  1  0     0  0
 15 22  1  0     0  0
 16  1  2  0     0  0
 17  1  2  0     0  0
 18  3  2  0     0  0
 19  2  1  0     0  0
 20 14  2  0     0  0
 21 14  1  0     0  0
 22 24  1  0     0  0
 23 20  1  0     0  0
 24 21  2  0     0  0
 25  8  1  0     0  0
 26 10  1  0     0  0
 27 12  1  0     0  0
 28 19  2  0     0  0
 29 19  1  0     0  0
 30 29  2  0     0  0
 31 28  1  0     0  0
 32 31  2  0     0  0
 23 22  2  0     0  0
 13 12  2  0     0  0
  4  2  1  0     0  0
 32 30  1  0     0  0
M  END
>  <prID>
43

>  <IDDB>
12357

>  <pIC50_HIV_Integrase>
4.013228266

>  <Q>
-1.955984884

>  <Activity_Integrase>
Inactive_Integrase

NA
NA
NA
NA
$$$$

  Accelrys05311914342D 1   1.00000     0.00000     0

 22 24  0     0  0            999 V2000
    0.2417    0.3500    0.0000 C   0  0  0  0  0  0           0  0  0
   -1.0833   -0.4167    0.0000 C   0  0  0  0  0  0           0  0  0
   -1.0833   -1.9583    0.0000 C   0  0  0  0  0  0           0  0  0
   -2.4208   -2.7292    0.0000 C   0  0  0  0  0  0           0  0  0
    2.8958    1.8958    0.0000 C   0  0  0  0  0  0           0  0  0
    0.2417    1.8958    0.0000 C   0  0  0  0  0  0           0  0  0
    1.5667    2.6625    0.0000 C   0  0  0  0  0  0           0  0  0
    1.5667   -0.4167    0.0000 N   0  0  0  0  0  0           0  0  0
   -2.4208   -4.2708    0.0000 C   0  0  0  0  0  0           0  0  0
    4.2375    2.6625    0.0000 C   0  0  0  0  0  0           0  0  0
    2.8958    0.3500    0.0000 C   0  0  0  0  0  0           0  0  0
   -3.7625   -0.4167    0.0000 N   0  0  0  0  0  0           0  0  0
   -3.7625   -1.9583    0.0000 C   0  0  0  0  0  0           0  0  0
   -2.4208    0.3500    0.0000 C   0  0  0  0  0  0           0  0  0
   -1.0833    2.6625    0.0000 C   0  0  0  0  0  0           0  0  0
   -3.7625   -5.0375    0.0000 O   0  0  0  0  0  0           0  0  0
    5.5792    1.8958    0.0000 O   0  0  0  0  0  0           0  0  0
   -2.4208    1.8958    0.0000 C   0  0  0  0  0  0           0  0  0
    0.2417   -2.7292    0.0000 O   0  0  0  0  0  0           0  0  0
    1.5667    4.2000    0.0000 O   0  0  0  0  0  0           0  0  0
    4.2375    4.2000    0.0000 O   0  0  0  0  0  0           0  0  0
   -1.0833   -5.0375    0.0000 O   0  0  0  0  0  0           0  0  0
  2  1  1  0     0  0
  3  2  2  0     0  0
  4  3  1  0     0  0
  5 11  1  0     0  0
  6  1  2  0     0  0
  7  6  1  0     0  0
  8  1  1  0     0  0
  9  4  1  0     0  0
 10  5  1  0     0  0
 11  8  2  0     0  0
 12 14  2  0     0  0
 13  4  2  0     0  0
 14  2  1  0     0  0
 15  6  1  0     0  0
 16  9  2  0     0  0
 17 10  2  0     0  0
 18 15  2  0     0  0
 19  3  1  0     0  0
 20  7  1  0     0  0
 21 10  1  0     0  0
 22  9  1  0     0  0
  5  7  2  0     0  0
 18 14  1  0     0  0
 13 12  1  0     0  0
M  END
>  <prID>
44

>  <IDDB>
12551

>  <pIC50_HIV_Integrase>
4.366531544

>  <Q>
-2.564225072

>  <Activity_Integrase>
Inactive_Integrase

NA
NA
NA
NA
$$$$

  Accelrys05311914342D 1   1.00000     0.00000     0

 32 35  0     0  0            999 V2000
   -3.6875   -0.0667    0.0000 N   0  0  3  0  0  0           0  0  0
    2.9042   -0.5458    0.0000 S   0  0  3  0  0  0           0  0  0
   -2.8500    0.3208    0.0000 C   0  0  0  0  0  0           0  0  0
   -3.5750   -0.9792    0.0000 N   0  0  0  0  0  0           0  0  0
   -2.2250   -0.3542    0.0000 C   0  0  3  0  0  0           0  0  0
   -2.6750   -1.1583    0.0000 C   0  0  0  0  0  0           0  0  0
    3.0292    0.3625    0.0000 N   0  0  0  0  0  0           0  0  0
   -1.3167   -0.2500    0.0000 N   0  0  0  0  0  0           0  0  0
    3.8875    0.7042    0.0000 C   0  0  0  0  0  0           0  0  0
    4.6042    0.1333    0.0000 N   0  0  0  0  0  0           0  0  0
    1.9833   -0.6542    0.0000 C   0  0  0  0  0  0           0  0  0
   -0.7625   -0.9875    0.0000 N   0  0  0  0  0  0           0  0  0
    2.9292   -1.4667    0.0000 O   0  0  0  0  0  0           0  0  0
    3.8167   -0.6000    0.0000 O   0  0  0  0  0  0           0  0  0
    4.0167    1.6167    0.0000 N   0  0  0  0  0  0           0  0  0
   -2.6625    1.2208    0.0000 O   0  0  0  0  0  0           0  0  0
   -4.4833    0.3833    0.0000 C   0  0  0  0  0  0           0  0  0
    1.6208   -1.5000    0.0000 C   0  0  0  0  0  0           0  0  0
    1.4292    0.0833    0.0000 C   0  0  0  0  0  0           0  0  0
    0.1583   -0.8792    0.0000 C   0  0  0  0  0  0           0  0  0
    5.4583    0.4750    0.0000 C   0  0  0  0  0  0           0  0  0
    4.8708    1.9583    0.0000 C   0  0  0  0  0  0           0  0  0
    0.7125   -1.6167    0.0000 C   0  0  0  0  0  0           0  0  0
    0.5167   -0.0333    0.0000 C   0  0  0  0  0  0           0  0  0
   -2.2875   -1.9917    0.0000 C   0  0  0  0  0  0           0  0  0
    5.5875    1.3833    0.0000 C   0  0  0  0  0  0           0  0  0
   -4.4958    1.3000    0.0000 C   0  0  0  0  0  0           0  0  0
   -5.2833   -0.0833    0.0000 C   0  0  0  0  0  0           0  0  0
    6.1875   -0.0958    0.0000 C   0  0  0  0  0  0           0  0  0
   -5.3042    1.7458    0.0000 C   0  0  0  0  0  0           0  0  0
   -6.0750    0.3583    0.0000 C   0  0  0  0  0  0           0  0  0
   -6.0833    1.2750    0.0000 C   0  0  0  0  0  0           0  0  0
  2 11  1  0     0  0
  3  1  1  0     0  0
  4  1  1  0     0  0
  5  3  1  0     0  0
  6  4  2  0     0  0
  7  2  1  0     0  0
  8  5  1  0     0  0
  9  7  1  0     0  0
 10  9  2  0     0  0
 11 19  1  0     0  0
 12  8  2  0     0  0
 13  2  2  0     0  0
 14  2  2  0     0  0
 15  9  1  0     0  0
 16  3  2  0     0  0
 17  1  1  0     0  0
 18 23  1  0     0  0
 19 24  2  0     0  0
 20 12  1  0     0  0
 21 10  1  0     0  0
 22 15  2  0     0  0
 23 20  2  0     0  0
 24 20  1  0     0  0
 25  6  1  0     0  0
 26 22  1  0     0  0
 27 17  2  0     0  0
 28 17  1  0     0  0
 29 21  1  0     0  0
 30 27  1  0     0  0
 31 28  2  0     0  0
 32 31  1  0     0  0
  6  5  1  0     0  0
 32 30  2  0     0  0
 11 18  2  0     0  0
 26 21  2  0     0  0
M  END
>  <prID>
45

>  <IDDB>
12783

>  <pIC50_HIV_Integrase>
4.627087997

>  <Q>
-2.102813437

>  <Activity_Integrase>
Inactive_Integrase

NA
NA
NA
NA
$$$$

  Accelrys05311914342D 1   1.00000     0.00000     0

 36 39  0     0  0            999 V2000
   -1.4875   -2.0708    0.0000 O   0  0  0  0  0  0           0  0  0
   -2.1417   -1.6917    0.0000 C   0  0  0  0  0  0           0  0  0
   -2.1417   -0.9208    0.0000 C   0  0  0  0  0  0           0  0  0
   -0.8292   -1.6917    0.0000 C   0  0  1  0  0  0           0  0  0
   -0.8292   -0.9208    0.0000 C   0  0  2  0  0  0           0  0  0
   -1.4875   -0.5375    0.0000 C   0  0  0  0  0  0           0  0  0
   -2.8125   -0.5375    0.0000 C   0  0  0  0  0  0           0  0  0
   -0.1625   -2.0708    0.0000 C   0  0  0  0  0  0           0  0  0
   -0.1625    0.2208    0.0000 C   0  0  0  0  0  0           0  0  0
   -0.1625   -0.5375    0.0000 O   0  0  0  0  0  0           0  0  0
   -2.8125   -2.0708    0.0000 C   0  0  0  0  0  0           0  0  0
   -3.4792   -0.9208    0.0000 C   0  0  0  0  0  0           0  0  0
   -0.1625   -2.8417    0.0000 C   0  0  0  0  0  0           0  0  0
    0.4958    0.6083    0.0000 C   0  0  0  0  0  0           0  0  0
    0.4958   -3.2292    0.0000 C   0  0  0  0  0  0           0  0  0
    2.4792    4.0542    0.0000 C   0  0  0  0  0  0           0  0  0
   -3.4792   -1.6917    0.0000 C   0  0  0  0  0  0           0  0  0
    1.1583   -2.8417    0.0000 C   0  0  0  0  0  0           0  0  0
    3.1417    3.6792    0.0000 C   0  0  0  0  0  0           0  0  0
    0.4958   -1.6917    0.0000 C   0  0  0  0  0  0           0  0  0
    1.8083    3.6792    0.0000 C   0  0  0  0  0  0           0  0  0
   -0.8292    0.6083    0.0000 O   0  0  0  0  0  0           0  0  0
    1.1583   -2.0708    0.0000 C   0  0  0  0  0  0           0  0  0
    3.1417    2.9167    0.0000 C   0  0  0  0  0  0           0  0  0
    1.8083    2.9167    0.0000 C   0  0  0  0  0  0           0  0  0
   -2.8125    0.2208    0.0000 O   0  0  0  0  0  0           0  0  0
    0.4958   -3.9958    0.0000 O   0  0  0  0  0  0           0  0  0
    2.4792    4.8167    0.0000 O   0  0  0  0  0  0           0  0  0
    0.4958    1.3792    0.0000 C   0  0  2  0  0  0           0  0  0
    2.4792    2.5208    0.0000 C   0  0  0  0  0  0           0  0  0
   -4.1333   -2.0708    0.0000 O   0  0  0  0  0  0           0  0  0
    1.8083   -3.2292    0.0000 O   0  0  0  0  0  0           0  0  0
    3.8000    4.0542    0.0000 O   0  0  0  0  0  0           0  0  0
    1.1583    2.5208    0.0000 C   0  0  0  0  0  0           0  0  0
    1.1583    1.7583    0.0000 C   0  0  0  0  0  0           0  0  0
   -0.1625    1.7583    0.0000 O   0  0  0  0  0  0           0  0  0
  2  1  1  0     0  0
  3  2  1  0     0  0
  4  1  1  0     0  0
  5  4  1  0     0  0
  6  3  1  0     0  0
  7  3  2  0     0  0
  4  8  1  1     0  0
  9 10  1  0     0  0
  5 10  1  6     0  0
 11  2  2  0     0  0
 12  7  1  0     0  0
 13  8  2  0     0  0
 14  9  1  0     0  0
 15 13  1  0     0  0
 16 21  1  0     0  0
 17 11  1  0     0  0
 18 23  1  0     0  0
 19 24  1  0     0  0
 20  8  1  0     0  0
 21 25  2  0     0  0
 22  9  2  0     0  0
 23 20  2  0     0  0
 24 30  2  0     0  0
 25 34  1  0     0  0
 26  7  1  0     0  0
 27 15  1  0     0  0
 28 16  1  0     0  0
 29 14  1  0     0  0
 30 25  1  0     0  0
 31 17  1  0     0  0
 32 18  1  0     0  0
 33 19  1  0     0  0
 34 35  1  0     0  0
 35 29  1  0     0  0
 29 36  1  1     0  0
  6  5  1  0     0  0
 12 17  2  0     0  0
 18 15  2  0     0  0
 19 16  2  0     0  0
M  END
>  <prID>
46

>  <IDDB>
13326

>  <pIC50_HIV_Integrase>
6

>  <Q>
-6.322073569

>  <Activity_Integrase>
Inactive_Integrase

NA
NA
NA
NA
$$$$

  Accelrys05311914342D 1   1.00000     0.00000     0

 12 12  0     0  0            999 V2000
    1.6787   -0.2274    0.0000 C   0  0  0  0  0  0           0  0  0
    2.3912    0.1851    0.0000 C   0  0  0  0  0  0           0  0  0
    3.1037   -0.2233    0.0000 O   0  0  0  0  0  0           0  0  0
    3.8162    0.1892    0.0000 C   0  0  0  0  0  0           0  0  0
    4.5287   -0.2191    0.0000 C   0  0  0  0  0  0           0  0  0
    4.5517   -1.0426    0.0000 C   0  0  0  0  0  0           0  0  0
    5.3437   -1.2735    0.0000 S   0  0  0  0  0  0           0  0  0
    5.8097   -0.5926    0.0000 S   0  0  0  0  0  0           0  0  0
    5.3034    0.0620    0.0000 C   0  0  0  0  0  0           0  0  0
    3.8083    1.0167    0.0000 O   0  0  0  0  0  0           0  0  0
    5.5125    0.8625    0.0000 S   0  0  0  0  0  0           0  0  0
    3.8333   -1.4500    0.0000 N   0  0  0  0  0  0           0  0  0
  1  2  1  0     0  0
  3  4  1  0     0  0
  7  8  1  0     0  0
  8  9  1  0     0  0
  9  5  1  0     0  0
  5  6  2  0     0  0
  4  5  1  0     0  0
  4 10  2  0     0  0
  6  7  1  0     0  0
  9 11  2  0     0  0
  2  3  1  0     0  0
  6 12  1  0     0  0
M  END
>  <prID>
47

>  <IDDB>
13692

>  <pIC50_HIV_Integrase>
3.609122313

>  <Q>
1.890309669

>  <Activity_Integrase>
Inactive_Integrase

NA
NA
NA
NA
$$$$

  Accelrys05311914342D 1   1.00000     0.00000     0

 34 38  0     0  0            999 V2000
    6.1167   -7.7625    0.0000 C   0  0  0  0  0  0           0  0  0
    6.8292   -8.1791    0.0000 C   0  0  0  0  0  0           0  0  0
    6.1209   -6.9333    0.0000 C   0  0  0  0  0  0           0  0  0
    7.5458   -7.7666    0.0000 C   0  0  0  0  0  0           0  0  0
    5.4000   -8.1708    0.0000 C   0  0  0  0  0  0           0  0  0
    6.8250   -9.0042    0.0000 O   0  0  0  0  0  0           0  0  0
    4.6917   -7.7625    0.0000 C   0  0  0  0  0  0           0  0  0
    5.4041   -6.5209    0.0000 C   0  0  0  0  0  0           0  0  0
    3.9834   -8.1750    0.0000 C   0  0  0  0  0  0           0  0  0
    4.6875   -6.9375    0.0000 C   0  0  0  0  0  0           0  0  0
    3.2667   -7.7666    0.0000 C   0  0  0  0  0  0           0  0  0
    3.2667   -6.9417    0.0000 C   0  0  0  0  0  0           0  0  0
    2.5625   -8.1791    0.0000 C   0  0  0  0  0  0           0  0  0
    2.5541   -6.5375    0.0000 C   0  0  0  0  0  0           0  0  0
    1.8500   -7.7708    0.0000 C   0  0  0  0  0  0           0  0  0
    1.8458   -6.9458    0.0000 C   0  0  0  0  0  0           0  0  0
    5.3958   -5.7000    0.0000 C   0  0  0  0  0  0           0  0  0
    3.8313   -5.1282    0.0000 C   0  0  0  0  0  0           0  0  0
    3.4964   -4.3761    0.0000 C   0  0  0  0  0  0           0  0  0
    4.6458   -5.0417    0.0000 N   0  0  3  0  0  0           0  0  0
    4.1030   -3.8318    0.0000 C   0  0  0  0  0  0           0  0  0
    4.8151   -4.2314    0.0000 S   0  0  3  0  0  0           0  0  0
    4.9785   -3.4327    0.0000 O   0  0  0  0  0  0           0  0  0
    5.6138   -4.3989    0.0000 O   0  0  0  0  0  0           0  0  0
    8.2610   -8.1840    0.0000 C   0  0  0  0  0  0           0  0  0
    8.2580   -6.5302    0.0000 C   0  0  0  0  0  0           0  0  0
    7.5448   -6.9444    0.0000 N   0  0  0  0  0  0           0  0  0
    8.9786   -6.9444    0.0000 C   0  0  0  0  0  0           0  0  0
    8.9766   -7.7690    0.0000 C   0  0  0  0  0  0           0  0  0
    9.6886   -8.1813    0.0000 N   0  0  0  0  0  0           0  0  0
   10.4031   -7.7701    0.0000 C   0  0  0  0  0  0           0  0  0
   10.4011   -6.9423    0.0000 C   0  0  0  0  0  0           0  0  0
    9.6885   -6.5338    0.0000 C   0  0  0  0  0  0           0  0  0
    8.2542   -9.0083    0.0000 O   0  0  0  0  0  0           0  0  0
  8 17  1  0     0  0
  5  1  2  0     0  0
  6  2  2  0     0  0
 18 19  1  0     0  0
  7  5  1  0     0  0
 20 18  1  0     0  0
  8  3  2  0     0  0
 19 21  1  0     0  0
  9  7  1  0     0  0
 21 22  1  0     0  0
 20 22  1  0     0  0
 10  7  2  0     0  0
 22 23  2  0     0  0
 11  9  1  0     0  0
 22 24  2  0     0  0
 17 20  1  0     0  0
 12 11  2  0     0  0
  4 25  2  0     0  0
 25 29  1  0     0  0
 13 11  1  0     0  0
 28 26  1  0     0  0
 14 12  1  0     0  0
 26 27  2  0     0  0
 27  4  1  0     0  0
 15 13  2  0     0  0
 16 15  1  0     0  0
 28 29  1  0     0  0
 10  8  1  0     0  0
 29 30  2  0     0  0
 16 14  2  0     0  0
 30 31  1  0     0  0
  2  1  1  0     0  0
 31 32  2  0     0  0
  3  1  1  0     0  0
 32 33  1  0     0  0
 33 28  2  0     0  0
  4  2  1  0     0  0
 25 34  1  0     0  0
M  END
>  <prID>
48

>  <IDDB>
13883

>  <pIC50_HIV_Integrase>
8

>  <Q>
-0.695940756

>  <Activity_Integrase>
Active_Integrase

NA
NA
NA
NA
$$$$

  Accelrys05311914342D 1   1.00000     0.00000     0

 30 33  0     0  0            999 V2000
    6.0964   -2.5745    0.0000 C   0  0  0  0  0  0           0  0  0
    5.3817   -1.3323    0.0000 C   0  0  0  0  0  0           0  0  0
    6.0965   -0.0894    0.0000 C   0  0  0  0  0  0           0  0  0
    6.0999   -1.7447    0.0000 N   0  0  3  0  0  0           0  0  0
    6.8098   -0.5041    0.0000 C   0  0  0  0  0  0           0  0  0
    6.8117   -1.3297    0.0000 S   0  0  3  0  0  0           0  0  0
    7.5311   -0.9128    0.0000 O   0  0  0  0  0  0           0  0  0
    7.2286   -2.0533    0.0000 O   0  0  0  0  0  0           0  0  0
    5.3806   -0.5007    0.0000 C   0  0  0  0  0  0           0  0  0
    4.6583   -4.2333    0.0000 C   0  0  0  0  0  0           0  0  0
    5.3791   -3.8125    0.0000 C   0  0  0  0  0  0           0  0  0
    4.6625   -5.0542    0.0000 O   0  0  0  0  0  0           0  0  0
    6.0984   -4.2215    0.0000 C   0  0  0  0  0  0           0  0  0
    5.3823   -2.9861    0.0000 N   0  0  0  0  0  0           0  0  0
    6.8119   -2.9861    0.0000 C   0  0  0  0  0  0           0  0  0
    6.8099   -3.8107    0.0000 C   0  0  0  0  0  0           0  0  0
    7.5219   -4.2230    0.0000 N   0  0  0  0  0  0           0  0  0
    8.2405   -3.8118    0.0000 C   0  0  0  0  0  0           0  0  0
    8.2386   -2.9840    0.0000 C   0  0  0  0  0  0           0  0  0
    7.5218   -2.5713    0.0000 C   0  0  0  0  0  0           0  0  0
    6.0958   -5.0459    0.0000 O   0  0  0  0  0  0           0  0  0
    3.9375   -3.8167    0.0000 N   0  0  0  0  0  0           0  0  0
    3.2250   -4.2334    0.0000 C   0  0  0  0  0  0           0  0  0
    2.5041   -3.8251    0.0000 C   0  0  0  0  0  0           0  0  0
    2.4958   -3.0000    0.0000 C   0  0  0  0  0  0           0  0  0
    1.7917   -4.2375    0.0000 C   0  0  0  0  0  0           0  0  0
    1.0750   -3.8251    0.0000 C   0  0  0  0  0  0           0  0  0
    1.7874   -2.5834    0.0000 C   0  0  0  0  0  0           0  0  0
    1.0666   -2.9959    0.0000 C   0  0  0  0  0  0           0  0  0
    0.3416   -2.5792    0.0000 F   0  0  0  0  0  0           0  0  0
 14 11  1  0     0  0
  6  8  2  0     0  0
  1  4  1  0     0  0
 15 16  1  0     0  0
  4  2  1  0     0  0
 16 17  2  0     0  0
  3  9  1  0     0  0
 17 18  1  0     0  0
  9  2  1  0     0  0
 18 19  2  0     0  0
  5  6  1  0     0  0
 19 20  1  0     0  0
 20 15  2  0     0  0
  4  6  1  0     0  0
 13 21  1  0     0  0
 10 22  1  0     0  0
 12 10  2  0     0  0
 22 23  1  0     0  0
 11 10  1  0     0  0
  6  7  2  0     0  0
 11 13  2  0     0  0
 13 16  1  0     0  0
 15  1  1  0     0  0
  3  5  1  0     0  0
 26 24  2  0     0  0
 27 26  1  0     0  0
 28 25  2  0     0  0
 29 27  2  0     0  0
 29 28  1  0     0  0
 25 24  1  0     0  0
 23 24  1  0     0  0
  1 14  2  0     0  0
 29 30  1  0     0  0
M  END
>  <prID>
49

>  <IDDB>
13884

>  <pIC50_HIV_Integrase>
8.004364805

>  <Q>
-4.869781858

>  <Activity_Integrase>
Active_Integrase

NA
NA
NA
NA
$$$$

  Accelrys05311914342D 1   1.00000     0.00000     0

 32 34  0     0  0            999 V2000
   -0.0500   -0.0792    0.0000 N   0  0  0  0  0  0           0  0  0
    4.5542   -0.0792    0.0000 C   0  0  0  0  0  0           0  0  0
   -4.6542   -0.0792    0.0000 C   0  0  0  0  0  0           0  0  0
   -3.8875    0.3625    0.0000 C   0  0  0  0  0  0           0  0  0
    3.7875    0.3625    0.0000 C   0  0  0  0  0  0           0  0  0
    2.2500    0.3625    0.0000 N   0  0  0  0  0  0           0  0  0
   -2.3500    0.3625    0.0000 N   0  0  0  0  0  0           0  0  0
   -1.5833   -0.0792    0.0000 C   0  0  0  0  0  0           0  0  0
    1.4833   -0.0792    0.0000 C   0  0  0  0  0  0           0  0  0
    3.0167   -0.0792    0.0000 N   0  0  0  0  0  0           0  0  0
   -3.1208   -0.0792    0.0000 N   0  0  0  0  0  0           0  0  0
   -0.8167    0.3625    0.0000 C   0  0  0  0  0  0           0  0  0
    0.7167    0.3625    0.0000 C   0  0  0  0  0  0           0  0  0
    5.3208    0.3625    0.0000 C   0  0  0  0  0  0           0  0  0
   -4.6542   -0.9667    0.0000 C   0  0  0  0  0  0           0  0  0
   -3.8875    1.2500    0.0000 O   0  0  0  0  0  0           0  0  0
    3.7875    1.2500    0.0000 O   0  0  0  0  0  0           0  0  0
    5.3208    1.2500    0.0000 O   0  0  0  0  0  0           0  0  0
   -3.8875   -1.4125    0.0000 O   0  0  0  0  0  0           0  0  0
   -5.4208    0.3625    0.0000 C   0  0  0  0  0  0           0  0  0
    4.5542   -0.9667    0.0000 C   0  0  0  0  0  0           0  0  0
    0.7167    1.2500    0.0000 C   0  0  0  0  0  0           0  0  0
   -0.8167    1.2500    0.0000 C   0  0  0  0  0  0           0  0  0
   -1.5833   -0.9667    0.0000 C   0  0  0  0  0  0           0  0  0
    1.4833   -0.9667    0.0000 C   0  0  0  0  0  0           0  0  0
   -0.0500    1.6917    0.0000 C   0  0  0  0  0  0           0  0  0
   -5.4208   -1.4125    0.0000 C   0  0  0  0  0  0           0  0  0
    6.0875   -0.0792    0.0000 C   0  0  0  0  0  0           0  0  0
    5.3208   -1.4125    0.0000 C   0  0  0  0  0  0           0  0  0
   -6.1833   -0.0792    0.0000 C   0  0  0  0  0  0           0  0  0
    6.0875   -0.9667    0.0000 C   0  0  0  0  0  0           0  0  0
   -6.1833   -0.9667    0.0000 C   0  0  0  0  0  0           0  0  0
  2  5  1  0     0  0
  3  4  1  0     0  0
  4 11  1  0     0  0
  5 10  1  0     0  0
  6  9  2  0     0  0
  7  8  2  0     0  0
  8 12  1  0     0  0
  9 13  1  0     0  0
 10  6  1  0     0  0
 11  7  1  0     0  0
 12  1  1  0     0  0
 13  1  2  0     0  0
 14  2  2  0     0  0
 15  3  2  0     0  0
 16  4  2  0     0  0
 17  5  2  0     0  0
 18 14  1  0     0  0
 19 15  1  0     0  0
 20  3  1  0     0  0
 21  2  1  0     0  0
 22 13  1  0     0  0
 23 12  2  0     0  0
 24  8  1  0     0  0
 25  9  1  0     0  0
 26 23  1  0     0  0
 27 15  1  0     0  0
 28 14  1  0     0  0
 29 21  2  0     0  0
 30 20  2  0     0  0
 31 29  1  0     0  0
 32 30  1  0     0  0
 26 22  2  0     0  0
 32 27  2  0     0  0
 31 28  2  0     0  0
M  END
>  <prID>
50

>  <IDDB>
14132

>  <pIC50_HIV_Integrase>
4.787812396

>  <Q>
-2.658457893

>  <Activity_Integrase>
Inactive_Integrase

NA
NA
NA
NA
$$$$

  Accelrys05311914342D 1   1.00000     0.00000     0

 19 21  0     0  0            999 V2000
   -1.3208    0.6083    0.0000 C   0  0  0  0  0  0           0  0  0
   -1.3208   -0.9292    0.0000 C   0  0  0  0  0  0           0  0  0
    0.0000    1.3833    0.0000 C   0  0  0  0  0  0           0  0  0
    1.3167    0.6083    0.0000 C   0  0  0  0  0  0           0  0  0
   -2.6625    1.3833    0.0000 C   0  0  0  0  0  0           0  0  0
    1.3167   -0.9292    0.0000 C   0  0  0  0  0  0           0  0  0
   -2.6625   -1.7000    0.0000 C   0  0  0  0  0  0           0  0  0
    0.0000   -1.7000    0.0000 O   0  0  0  0  0  0           0  0  0
   -3.9917    0.6083    0.0000 C   0  0  0  0  0  0           0  0  0
   -3.9917   -0.9292    0.0000 C   0  0  0  0  0  0           0  0  0
    2.6583    1.3833    0.0000 C   0  0  0  0  0  0           0  0  0
    2.6583   -1.7000    0.0000 C   0  0  0  0  0  0           0  0  0
    3.9875    0.6083    0.0000 C   0  0  0  0  0  0           0  0  0
    3.9875   -0.9292    0.0000 C   0  0  0  0  0  0           0  0  0
   -5.3292   -1.7000    0.0000 O   0  0  0  0  0  0           0  0  0
   -5.3292    1.3833    0.0000 O   0  0  0  0  0  0           0  0  0
    0.0000    2.9208    0.0000 C   0  0  0  0  0  0           0  0  0
    5.3250    1.3833    0.0000 O   0  0  0  0  0  0           0  0  0
    5.3250   -1.7000    0.0000 O   0  0  0  0  0  0           0  0  0
  2  1  1  0     0  0
  3  1  2  0     0  0
  4  3  1  0     0  0
  5  1  1  0     0  0
  6  8  1  0     0  0
  7  2  2  0     0  0
  8  2  1  0     0  0
  9  5  2  0     0  0
 10  7  1  0     0  0
 11  4  1  0     0  0
 12  6  1  0     0  0
 13 11  2  0     0  0
 14 12  2  0     0  0
 15 10  2  0     0  0
 16  9  1  0     0  0
 17  3  1  0     0  0
 18 13  1  0     0  0
 19 14  1  0     0  0
  9 10  1  0     0  0
  4  6  2  0     0  0
 13 14  1  0     0  0
M  END
>  <prID>
51

>  <IDDB>
14274

>  <pIC50_HIV_Integrase>
3.890421453

>  <Q>
-1.913276416

>  <Activity_Integrase>
Inactive_Integrase

NA
NA
NA
NA
$$$$

  Accelrys05311914342D 1   1.00000     0.00000     0

 28 30  0     0  0            999 V2000
   -2.2167    0.5458    0.0000 S   0  0  3  0  0  0           0  0  0
    4.3583    0.0458    0.0000 C   0  0  3  0  0  0           0  0  0
   -2.7833   -0.5000    0.0000 N   0  0  0  0  0  0           0  0  0
    3.2125    0.3208    0.0000 N   0  0  0  0  0  0           0  0  0
   -3.9667   -0.5333    0.0000 C   0  0  0  0  0  0           0  0  0
    3.9708   -1.0792    0.0000 C   0  0  0  0  0  0           0  0  0
   -4.5833    0.4792    0.0000 N   0  0  0  0  0  0           0  0  0
   -1.0625    0.2708    0.0000 C   0  0  0  0  0  0           0  0  0
    2.3958   -0.5375    0.0000 N   0  0  0  0  0  0           0  0  0
    4.5167    1.2208    0.0000 C   0  0  0  0  0  0           0  0  0
   -1.8417    1.6708    0.0000 O   0  0  0  0  0  0           0  0  0
   -3.3042    1.0208    0.0000 O   0  0  0  0  0  0           0  0  0
   -4.5208   -1.5750    0.0000 N   0  0  0  0  0  0           0  0  0
    4.9083   -1.7875    0.0000 O   0  0  0  0  0  0           0  0  0
    2.8333   -1.4167    0.0000 O   0  0  0  0  0  0           0  0  0
    5.5458    0.0167    0.0000 C   0  0  0  0  0  0           0  0  0
    3.5667    1.9333    0.0000 O   0  0  0  0  0  0           0  0  0
   -0.2458    1.1417    0.0000 C   0  0  0  0  0  0           0  0  0
   -0.7208   -0.8625    0.0000 C   0  0  0  0  0  0           0  0  0
    1.2417   -0.2750    0.0000 C   0  0  0  0  0  0           0  0  0
   -5.7708    0.4375    0.0000 C   0  0  0  0  0  0           0  0  0
   -5.7083   -1.6083    0.0000 C   0  0  0  0  0  0           0  0  0
    5.8917   -1.1250    0.0000 C   0  0  0  0  0  0           0  0  0
    0.9000    0.8667    0.0000 C   0  0  0  0  0  0           0  0  0
    0.4292   -1.1375    0.0000 C   0  0  0  0  0  0           0  0  0
   -6.3208   -0.6042    0.0000 C   0  0  0  0  0  0           0  0  0
    5.6083    1.6708    0.0000 C   0  0  0  0  0  0           0  0  0
   -6.3792    1.4458    0.0000 C   0  0  0  0  0  0           0  0  0
  2  4  1  0     0  0
  3  1  1  0     0  0
  4  9  2  0     0  0
  5  3  1  0     0  0
  6  2  1  0     0  0
  7  5  2  0     0  0
  8  1  1  0     0  0
  9 20  1  0     0  0
 10  2  1  0     0  0
 11  1  2  0     0  0
 12  1  2  0     0  0
 13  5  1  0     0  0
 14  6  1  0     0  0
 15  6  2  0     0  0
 16  2  1  0     0  0
 17 10  2  0     0  0
 18  8  2  0     0  0
 19  8  1  0     0  0
 20 25  1  0     0  0
 21  7  1  0     0  0
 22 13  2  0     0  0
 23 16  1  0     0  0
 24 18  1  0     0  0
 25 19  2  0     0  0
 26 22  1  0     0  0
 27 10  1  0     0  0
 28 21  1  0     0  0
 24 20  2  0     0  0
 26 21  2  0     0  0
 23 14  1  0     0  0
M  END
>  <prID>
52

>  <IDDB>
15135

>  <pIC50_HIV_Integrase>
4.187086643

>  <Q>
-3.024008964

>  <Activity_Integrase>
Inactive_Integrase

NA
NA
NA
NA
$$$$

  Accelrys05311914342D 1   1.00000     0.00000     0

 28 30  0     0  0            999 V2000
   -1.5292    0.3708    0.0000 S   0  0  3  0  0  0           0  0  0
   -2.9125   -0.4833    0.0000 C   0  0  0  0  0  0           0  0  0
   -2.0917   -0.4458    0.0000 N   0  0  0  0  0  0           0  0  0
    3.0583    0.0417    0.0000 C   0  0  3  0  0  0           0  0  0
   -3.4250    0.1625    0.0000 C   0  0  0  0  0  0           0  0  0
    2.2542    0.2292    0.0000 N   0  0  0  0  0  0           0  0  0
   -4.1625   -0.9583    0.0000 N   0  0  0  0  0  0           0  0  0
   -3.3625   -1.1792    0.0000 O   0  0  0  0  0  0           0  0  0
    2.7875   -0.7417    0.0000 C   0  0  0  0  0  0           0  0  0
   -4.2042   -0.1375    0.0000 C   0  0  0  0  0  0           0  0  0
   -0.7208    0.1792    0.0000 C   0  0  0  0  0  0           0  0  0
    1.6833   -0.3708    0.0000 N   0  0  0  0  0  0           0  0  0
    3.1583    0.8625    0.0000 C   0  0  0  0  0  0           0  0  0
   -1.2750    1.1542    0.0000 O   0  0  0  0  0  0           0  0  0
   -2.2833    0.6958    0.0000 O   0  0  0  0  0  0           0  0  0
    3.4458   -1.2292    0.0000 O   0  0  0  0  0  0           0  0  0
    1.9917   -0.9792    0.0000 O   0  0  0  0  0  0           0  0  0
    3.8792    0.0292    0.0000 C   0  0  0  0  0  0           0  0  0
    2.5000    1.3625    0.0000 O   0  0  0  0  0  0           0  0  0
   -0.4833   -0.6042    0.0000 C   0  0  0  0  0  0           0  0  0
   -0.1625    0.7875    0.0000 C   0  0  0  0  0  0           0  0  0
    0.8875   -0.1875    0.0000 C   0  0  0  0  0  0           0  0  0
   -3.2167    0.9583    0.0000 C   0  0  0  0  0  0           0  0  0
    4.1250   -0.7583    0.0000 C   0  0  0  0  0  0           0  0  0
    0.6458    0.6000    0.0000 C   0  0  0  0  0  0           0  0  0
    0.3208   -0.7958    0.0000 C   0  0  0  0  0  0           0  0  0
   -4.8875    0.3167    0.0000 C   0  0  0  0  0  0           0  0  0
    3.9167    1.1833    0.0000 C   0  0  0  0  0  0           0  0  0
  2  3  1  0     0  0
  3  1  1  0     0  0
  4  6  1  0     0  0
  5  2  2  0     0  0
  6 12  2  0     0  0
  7  8  1  0     0  0
  8  2  1  0     0  0
  9  4  1  0     0  0
 10  5  1  0     0  0
 11  1  1  0     0  0
 12 22  1  0     0  0
 13  4  1  0     0  0
 14  1  2  0     0  0
 15  1  2  0     0  0
 16  9  1  0     0  0
 17  9  2  0     0  0
 18  4  1  0     0  0
 19 13  2  0     0  0
 20 11  1  0     0  0
 21 11  2  0     0  0
 22 25  2  0     0  0
 23  5  1  0     0  0
 24 18  1  0     0  0
 25 21  1  0     0  0
 26 20  2  0     0  0
 27 10  1  0     0  0
 28 13  1  0     0  0
 26 22  1  0     0  0
  7 10  2  0     0  0
 24 16  1  0     0  0
M  END
>  <prID>
53

>  <IDDB>
15136

>  <pIC50_HIV_Integrase>
3.844967771

>  <Q>
-3.537049832

>  <Activity_Integrase>
Inactive_Integrase

NA
NA
NA
NA
$$$$

  Accelrys05311914342D 1   1.00000     0.00000     0

 27 29  0     0  0            999 V2000
   -2.3292    0.7500    0.0000 S   0  0  3  0  0  0           0  0  0
   -4.0833   -0.2167    0.0000 C   0  0  0  0  0  0           0  0  0
    4.0500   -0.0542    0.0000 C   0  0  3  0  0  0           0  0  0
   -2.9292   -0.2375    0.0000 N   0  0  0  0  0  0           0  0  0
   -4.7750   -1.1292    0.0000 S   0  0  0  0  0  0           0  0  0
   -4.7417    0.7292    0.0000 N   0  0  0  0  0  0           0  0  0
    2.9375    0.2583    0.0000 N   0  0  0  0  0  0           0  0  0
   -5.8375    0.3958    0.0000 N   0  0  0  0  0  0           0  0  0
    3.6125   -1.1292    0.0000 C   0  0  0  0  0  0           0  0  0
   -5.8625   -0.7583    0.0000 C   0  0  0  0  0  0           0  0  0
   -1.2250    0.4292    0.0000 C   0  0  0  0  0  0           0  0  0
    2.1000   -0.5375    0.0000 N   0  0  0  0  0  0           0  0  0
    4.2458    1.0792    0.0000 C   0  0  0  0  0  0           0  0  0
   -1.9167    1.8250    0.0000 O   0  0  0  0  0  0           0  0  0
   -3.3667    1.2625    0.0000 O   0  0  0  0  0  0           0  0  0
    4.4917   -1.8667    0.0000 O   0  0  0  0  0  0           0  0  0
    2.4917   -1.4042    0.0000 O   0  0  0  0  0  0           0  0  0
    5.1917   -0.1458    0.0000 C   0  0  0  0  0  0           0  0  0
    3.3708    1.8250    0.0000 O   0  0  0  0  0  0           0  0  0
   -0.3917    1.2250    0.0000 C   0  0  0  0  0  0           0  0  0
   -0.9458   -0.6917    0.0000 C   0  0  0  0  0  0           0  0  0
    0.9917   -0.2167    0.0000 C   0  0  0  0  0  0           0  0  0
    5.4708   -1.2667    0.0000 C   0  0  0  0  0  0           0  0  0
    0.7167    0.9000    0.0000 C   0  0  0  0  0  0           0  0  0
    0.1625   -1.0167    0.0000 C   0  0  0  0  0  0           0  0  0
   -6.8000   -1.4167    0.0000 C   0  0  0  0  0  0           0  0  0
    5.3333    1.4667    0.0000 C   0  0  0  0  0  0           0  0  0
  2  4  1  0     0  0
  3  7  1  0     0  0
  4  1  1  0     0  0
  5  2  1  0     0  0
  6  2  2  0     0  0
  7 12  2  0     0  0
  8  6  1  0     0  0
  9  3  1  0     0  0
 10  5  1  0     0  0
 11  1  1  0     0  0
 12 22  1  0     0  0
 13  3  1  0     0  0
 14  1  2  0     0  0
 15  1  2  0     0  0
 16  9  1  0     0  0
 17  9  2  0     0  0
 18  3  1  0     0  0
 19 13  2  0     0  0
 20 11  2  0     0  0
 21 11  1  0     0  0
 22 25  1  0     0  0
 23 18  1  0     0  0
 24 20  1  0     0  0
 25 21  2  0     0  0
 26 10  1  0     0  0
 27 13  1  0     0  0
 24 22  2  0     0  0
 10  8  2  0     0  0
 23 16  1  0     0  0
M  END
>  <prID>
54

>  <IDDB>
15137

>  <pIC50_HIV_Integrase>
3.749579998

>  <Q>
-2.590484076

>  <Activity_Integrase>
Inactive_Integrase

NA
NA
NA
NA
$$$$

  Accelrys05311914342D 1   1.00000     0.00000     0

 30 33  0     0  0            999 V2000
    5.5917   -3.8750    0.0000 N   0  0  0  0  0  0           0  0  0
    6.3042   -4.2875    0.0000 C   0  0  0  0  0  0           0  0  0
    7.0167   -3.8792    0.0000 C   0  0  0  0  0  0           0  0  0
    7.7292   -4.2917    0.0000 C   0  0  0  0  0  0           0  0  0
    8.4417   -3.8833    0.0000 N   0  0  0  0  0  0           0  0  0
    5.3333   -0.6125    0.0000 N   0  0  3  0  0  0           0  0  0
    6.0458   -0.2000    0.0000 C   0  0  0  0  0  0           0  0  0
    6.7583   -0.6125    0.0000 C   0  0  0  0  0  0           0  0  0
    7.4708   -0.2000    0.0000 N   0  0  0  0  0  0           0  0  0
    8.1833   -0.6125    0.0000 C   0  0  0  0  0  0           0  0  0
    8.8958   -0.2000    0.0000 C   0  0  0  0  0  0           0  0  0
    9.6083   -0.6125    0.0000 O   0  0  0  0  0  0           0  0  0
    4.5083   -0.6125    0.0000 N   0  0  0  0  0  0           0  0  0
    5.5901   -1.3966    0.0000 C   0  0  0  0  0  0           0  0  0
    4.9208   -1.8833    0.0000 C   0  0  0  0  0  0           0  0  0
    4.2558   -1.3966    0.0000 C   0  0  0  0  0  0           0  0  0
    4.8812   -2.6399    0.0000 C   0  0  0  0  0  0           0  0  0
    5.5960   -3.0527    0.0000 C   0  0  0  0  0  0           0  0  0
    6.3125   -2.6394    0.0000 C   0  0  0  0  0  0           0  0  0
    6.3096   -1.8089    0.0000 C   0  0  0  0  0  0           0  0  0
    3.4583   -1.8125    0.0000 C   0  0  0  0  0  0           0  0  0
    3.4583   -2.6375    0.0000 C   0  0  0  0  0  0           0  0  0
    4.1704   -3.0458    0.0000 C   0  0  0  0  0  0           0  0  0
    2.0277   -1.8125    0.0000 C   0  0  0  0  0  0           0  0  0
    2.0266   -2.6398    0.0000 C   0  0  0  0  0  0           0  0  0
    2.7414   -3.0527    0.0000 C   0  0  0  0  0  0           0  0  0
    2.7396   -1.3997    0.0000 C   0  0  0  0  0  0           0  0  0
    4.1625   -3.8708    0.0000 O   0  0  0  0  0  0           0  0  0
    2.7333   -0.5708    0.0000 O   0  0  0  0  0  0           0  0  0
    2.7333   -3.8750    0.0000 O   0  0  0  0  0  0           0  0  0
 15 16  1  0     0  0
 16 13  2  0     0  0
  8  9  1  0     0  0
 15 17  1  0     0  0
  4  5  1  0     0  0
 17 18  2  0     0  0
  9 10  1  0     0  0
 18 19  1  0     0  0
  2  3  1  0     0  0
 19 20  2  0     0  0
 20 14  1  0     0  0
 21 22  2  0     0  0
 10 11  1  0     0  0
  1  2  1  0     0  0
 11 12  1  0     0  0
 21 16  1  0     0  0
 22 23  1  0     0  0
 23 17  1  0     0  0
 13  6  1  0     0  0
  6  7  1  0     0  0
 24 25  1  0     0  0
  3  4  1  0     0  0
 25 26  2  0     0  0
 26 22  1  0     0  0
  7  8  1  0     0  0
 21 27  1  0     0  0
 27 24  2  0     0  0
 23 28  2  0     0  0
  6 14  1  0     0  0
 27 29  1  0     0  0
 14 15  2  0     0  0
 26 30  1  0     0  0
 18  1  1  0     0  0
M  END
>  <prID>
55

>  <IDDB>
15837

>  <pIC50_HIV_Integrase>
5.045757491

>  <Q>
-5.672449528

>  <Activity_Integrase>
Inactive_Integrase

NA
NA
NA
NA
$$$$

  Accelrys05311914342D 1   1.00000     0.00000     0

 45 49  0     0  0            999 V2000
    3.9208   -4.5291    0.0000 C   0  0  0  0  0  0           0  0  0
    6.2417   -4.5333    0.0000 C   0  0  0  0  0  0           0  0  0
    3.2041   -4.1125    0.0000 C   0  0  0  0  0  0           0  0  0
    6.9542   -4.1208    0.0000 C   0  0  0  0  0  0           0  0  0
    3.9208   -5.3541    0.0000 C   0  0  0  0  0  0           0  0  0
    6.2375   -5.3584    0.0000 C   0  0  0  0  0  0           0  0  0
    5.0750   -3.9458    0.0000 C   0  0  3  0  0  0           0  0  0
    2.4875   -4.5291    0.0000 C   0  0  0  0  0  0           0  0  0
    7.6750   -4.5334    0.0000 C   0  0  0  0  0  0           0  0  0
    2.4875   -5.3541    0.0000 C   0  0  0  0  0  0           0  0  0
    7.6667   -5.3583    0.0000 C   0  0  0  0  0  0           0  0  0
    3.2041   -5.7666    0.0000 O   0  0  0  0  0  0           0  0  0
    6.9500   -5.7709    0.0000 O   0  0  0  0  0  0           0  0  0
    1.7791   -4.1125    0.0000 C   0  0  0  0  0  0           0  0  0
    8.3875   -4.1208    0.0000 C   0  0  0  0  0  0           0  0  0
    1.7791   -5.7666    0.0000 C   0  0  0  0  0  0           0  0  0
    8.3833   -5.7709    0.0000 C   0  0  0  0  0  0           0  0  0
    1.0625   -5.3541    0.0000 C   0  0  0  0  0  0           0  0  0
    9.0958   -5.3583    0.0000 C   0  0  0  0  0  0           0  0  0
    1.0625   -4.5291    0.0000 C   0  0  0  0  0  0           0  0  0
    9.1000   -4.5334    0.0000 C   0  0  0  0  0  0           0  0  0
    4.6125   -5.7750    0.0000 O   0  0  0  0  0  0           0  0  0
    5.5167   -5.7792    0.0000 O   0  0  0  0  0  0           0  0  0
    5.0833   -3.1250    0.0000 C   0  0  0  0  0  0           0  0  0
    3.2041   -3.2875    0.0000 O   0  0  0  0  0  0           0  0  0
    6.9542   -3.2958    0.0000 O   0  0  0  0  0  0           0  0  0
    0.3375   -5.7750    0.0000 O   0  0  0  0  0  0           0  0  0
    9.8167   -5.7833    0.0000 O   0  0  0  0  0  0           0  0  0
    0.3375   -4.1125    0.0000 C   0  0  0  0  0  0           0  0  0
    9.8292   -4.1209    0.0000 C   0  0  0  0  0  0           0  0  0
    4.3625   -2.7083    0.0000 C   0  0  0  0  0  0           0  0  0
    5.7917   -2.7083    0.0000 C   0  0  0  0  0  0           0  0  0
   -0.3750   -4.5292    0.0000 C   0  0  0  0  0  0           0  0  0
    9.8417   -3.2958    0.0000 C   0  0  0  0  0  0           0  0  0
   -2.5292   -4.1375    0.0000 C   0  0  0  0  0  0           0  0  0
   11.2791   -1.6459    0.0000 C   0  0  0  0  0  0           0  0  0
   -1.8125   -4.5458    0.0000 C   0  0  0  0  0  0           0  0  0
   10.5666   -2.0625    0.0000 C   0  0  0  0  0  0           0  0  0
   -1.0958   -4.1209    0.0000 C   0  0  0  0  0  0           0  0  0
   10.5584   -2.8834    0.0000 C   0  0  0  0  0  0           0  0  0
   -3.2459   -4.5583    0.0000 C   0  0  0  0  0  0           0  0  0
   11.2750   -0.8167    0.0000 C   0  0  0  0  0  0           0  0  0
    4.3625   -1.8792    0.0000 C   0  0  0  0  0  0           0  0  0
    5.7917   -1.8792    0.0000 C   0  0  0  0  0  0           0  0  0
    5.0833   -1.4667    0.0000 C   0  0  0  0  0  0           0  0  0
  2  7  1  0     0  0
  3  1  2  0     0  0
  4  2  2  0     0  0
  5  1  1  0     0  0
  6  2  1  0     0  0
  7  1  1  0     0  0
  8  3  1  0     0  0
  9  4  1  0     0  0
 10 12  1  0     0  0
 11 13  1  0     0  0
 12  5  1  0     0  0
 13  6  1  0     0  0
 14  8  1  0     0  0
 15  9  1  0     0  0
 16 10  1  0     0  0
 17 11  1  0     0  0
 18 16  2  0     0  0
 19 17  2  0     0  0
 20 14  2  0     0  0
 21 15  2  0     0  0
 22  5  2  0     0  0
 23  6  2  0     0  0
 24  7  1  0     0  0
 25  3  1  0     0  0
 26  4  1  0     0  0
 27 18  1  0     0  0
 28 19  1  0     0  0
 29 20  1  0     0  0
 30 21  1  0     0  0
 31 24  2  0     0  0
 32 24  1  0     0  0
 33 29  1  0     0  0
 34 30  1  0     0  0
 35 37  1  0     0  0
 36 38  1  0     0  0
 37 39  1  0     0  0
 38 40  1  0     0  0
 39 33  1  0     0  0
 40 34  1  0     0  0
 41 35  1  0     0  0
 42 36  1  0     0  0
 43 31  1  0     0  0
 44 32  2  0     0  0
 45 44  1  0     0  0
 10  8  2  0     0  0
 18 20  1  0     0  0
 45 43  2  0     0  0
 11  9  2  0     0  0
 19 21  1  0     0  0
M  END
>  <prID>
56

>  <IDDB>
16075

>  <pIC50_HIV_Integrase>
4.920818754

>  <Q>
-5.217894735

>  <Activity_Integrase>
Inactive_Integrase

NA
NA
NA
NA
$$$$

  Accelrys05311914342D 1   1.00000     0.00000     0

 26 28  0     0  0            999 V2000
   -1.1083    0.2875    0.0000 C   0  0  0  0  0  0           0  0  0
    1.6583    0.1375    0.0000 C   0  0  0  0  0  0           0  0  0
    1.9208   -1.3875    0.0000 C   0  0  0  0  0  0           0  0  0
    0.8917   -2.5333    0.0000 C   0  0  0  0  0  0           0  0  0
   -1.5417   -1.1917    0.0000 C   0  0  0  0  0  0           0  0  0
   -2.1750    1.4000    0.0000 C   0  0  0  0  0  0           0  0  0
   -0.6458   -2.4375    0.0000 O   0  0  0  0  0  0           0  0  0
    0.3042    0.8917    0.0000 O   0  0  0  0  0  0           0  0  0
    2.8458    1.1208    0.0000 C   0  0  0  0  0  0           0  0  0
   -3.0333   -1.5583    0.0000 C   0  0  0  0  0  0           0  0  0
    3.3583   -1.9167    0.0000 C   0  0  0  0  0  0           0  0  0
   -3.6667    1.0250    0.0000 C   0  0  0  0  0  0           0  0  0
    4.2958    0.5833    0.0000 C   0  0  0  0  0  0           0  0  0
   -1.7417    2.8917    0.0000 C   0  0  0  0  0  0           0  0  0
   -4.1000   -0.4500    0.0000 C   0  0  0  0  0  0           0  0  0
    4.5417   -0.9417    0.0000 C   0  0  0  0  0  0           0  0  0
    1.4792   -3.9458    0.0000 O   0  0  0  0  0  0           0  0  0
    2.5833    2.6292    0.0000 C   0  0  0  0  0  0           0  0  0
   -2.8208    4.0000    0.0000 O   0  0  0  0  0  0           0  0  0
    3.7708    3.6167    0.0000 O   0  0  0  0  0  0           0  0  0
   -0.2500    3.2458    0.0000 O   0  0  0  0  0  0           0  0  0
    5.4792    1.5667    0.0000 O   0  0  0  0  0  0           0  0  0
   -5.5917   -0.8167    0.0000 O   0  0  0  0  0  0           0  0  0
   -3.4667   -3.0375    0.0000 C   0  0  0  0  0  0           0  0  0
    3.6167   -3.4375    0.0000 C   0  0  0  0  0  0           0  0  0
   -6.6500    0.3083    0.0000 C   0  0  0  0  0  0           0  0  0
  2  8  1  0     0  0
  3  2  2  0     0  0
  4  7  1  0     0  0
  5  1  1  0     0  0
  6  1  2  0     0  0
  7  5  1  0     0  0
  8  1  1  0     0  0
  9  2  1  0     0  0
 10  5  2  0     0  0
 11  3  1  0     0  0
 12  6  1  0     0  0
 13  9  2  0     0  0
 14  6  1  0     0  0
 15 12  2  0     0  0
 16 13  1  0     0  0
 17  4  2  0     0  0
 18  9  1  0     0  0
 19 14  2  0     0  0
 20 18  2  0     0  0
 21 14  1  0     0  0
 22 13  1  0     0  0
 23 15  1  0     0  0
 24 10  1  0     0  0
 25 11  1  0     0  0
 26 23  1  0     0  0
 15 10  1  0     0  0
  3  4  1  0     0  0
 16 11  2  0     0  0
M  END
>  <prID>
57

>  <IDDB>
16099

>  <pIC50_HIV_Integrase>
5.207608311

>  <Q>
-1.985635625

>  <Activity_Integrase>
Inactive_Integrase

NA
NA
NA
NA
$$$$

  Accelrys05311914342D 1   1.00000     0.00000     0

 56 64  0     0  0            999 V2000
    8.0500   -7.1329    0.0000 C   0  0  0  0  0  0           0  0  0
    8.0404   -6.4431    0.0000 C   0  0  0  0  0  0           0  0  0
    7.4245   -6.1020    0.0000 C   0  0  0  0  0  0           0  0  0
    7.4476   -7.4840    0.0000 C   0  0  0  0  0  0           0  0  0
    6.8354   -7.1549    0.0000 C   0  0  0  0  0  0           0  0  0
    6.8253   -6.4554    0.0000 C   0  0  0  0  0  0           0  0  0
    6.2112   -6.1225    0.0000 C   0  0  0  0  0  0           0  0  0
    5.6032   -6.4729    0.0000 C   0  0  0  0  0  0           0  0  0
    5.6133   -7.1682    0.0000 C   0  0  0  0  0  0           0  0  0
    6.2314   -7.5091    0.0000 O   0  0  0  0  0  0           0  0  0
    5.0088   -7.5221    0.0000 O   0  0  0  0  0  0           0  0  0
    6.1982   -5.4388    0.0000 O   0  0  0  0  0  0           0  0  0
    1.3214   -7.1672    0.0000 C   0  0  0  0  0  0           0  0  0
    1.3309   -6.4691    0.0000 C   0  0  0  0  0  0           0  0  0
    1.9469   -6.1363    0.0000 C   0  0  0  0  0  0           0  0  0
    1.9237   -7.5183    0.0000 C   0  0  0  0  0  0           0  0  0
    2.5360   -7.1809    0.0000 C   0  0  0  0  0  0           0  0  0
    2.5461   -6.4897    0.0000 C   0  0  0  0  0  0           0  0  0
    3.1601   -6.1568    0.0000 C   0  0  0  0  0  0           0  0  0
    3.7682   -6.5072    0.0000 C   0  0  0  0  0  0           0  0  0
    3.7581   -7.1983    0.0000 C   0  0  0  0  0  0           0  0  0
    3.1399   -7.5392    0.0000 O   0  0  0  0  0  0           0  0  0
    4.3626   -7.5522    0.0000 O   0  0  0  0  0  0           0  0  0
    3.1732   -5.4731    0.0000 O   0  0  0  0  0  0           0  0  0
    4.7027   -6.2066    0.0000 C   0  0  3  0  0  0           0  0  0
    8.0824   -2.5304    0.0000 C   0  0  0  0  0  0           0  0  0
    8.0728   -3.2202    0.0000 C   0  0  0  0  0  0           0  0  0
    7.4569   -3.5613    0.0000 C   0  0  0  0  0  0           0  0  0
    7.4800   -2.1793    0.0000 C   0  0  0  0  0  0           0  0  0
    6.8678   -2.5084    0.0000 C   0  0  0  0  0  0           0  0  0
    6.8577   -3.2079    0.0000 C   0  0  0  0  0  0           0  0  0
    6.2436   -3.5408    0.0000 C   0  0  0  0  0  0           0  0  0
    5.6356   -3.1904    0.0000 C   0  0  0  0  0  0           0  0  0
    5.6457   -2.4951    0.0000 C   0  0  0  0  0  0           0  0  0
    6.2638   -2.1542    0.0000 O   0  0  0  0  0  0           0  0  0
    5.0412   -2.1412    0.0000 O   0  0  0  0  0  0           0  0  0
    6.2306   -4.2245    0.0000 O   0  0  0  0  0  0           0  0  0
    1.3538   -2.4961    0.0000 C   0  0  0  0  0  0           0  0  0
    1.3633   -3.1942    0.0000 C   0  0  0  0  0  0           0  0  0
    1.9793   -3.5270    0.0000 C   0  0  0  0  0  0           0  0  0
    1.9561   -2.1450    0.0000 C   0  0  0  0  0  0           0  0  0
    2.5684   -2.4824    0.0000 C   0  0  0  0  0  0           0  0  0
    2.5785   -3.1736    0.0000 C   0  0  0  0  0  0           0  0  0
    3.1925   -3.5065    0.0000 C   0  0  0  0  0  0           0  0  0
    3.8006   -3.1561    0.0000 C   0  0  0  0  0  0           0  0  0
    3.7905   -2.4650    0.0000 C   0  0  0  0  0  0           0  0  0
    3.1723   -2.1241    0.0000 O   0  0  0  0  0  0           0  0  0
    4.3950   -2.1111    0.0000 O   0  0  0  0  0  0           0  0  0
    3.2056   -4.1902    0.0000 O   0  0  0  0  0  0           0  0  0
    4.7351   -3.4567    0.0000 C   0  0  3  0  0  0           0  0  0
    4.7270   -4.1441    0.0000 C   0  0  0  0  0  0           0  0  0
    4.1127   -4.4787    0.0000 C   0  0  0  0  0  0           0  0  0
    4.1043   -5.1697    0.0000 C   0  0  0  0  0  0           0  0  0
    4.7099   -5.5191    0.0000 C   0  0  0  0  0  0           0  0  0
    5.3252   -5.1807    0.0000 C   0  0  0  0  0  0           0  0  0
    5.3306   -4.4909    0.0000 C   0  0  0  0  0  0           0  0  0
  7 12  1  0     0  0
 20 25  1  0     0  0
 25  8  1  0     0  0
  2  3  1  0     0  0
  3  6  2  0     0  0
 13 14  2  0     0  0
  1  2  2  0     0  0
 14 15  1  0     0  0
 15 18  2  0     0  0
  5  4  2  0     0  0
 17 16  2  0     0  0
 16 13  1  0     0  0
 17 18  1  0     0  0
  4  1  1  0     0  0
  5 10  1  0     0  0
  6  7  1  0     0  0
  7  8  2  0     0  0
  8  9  1  0     0  0
  9 10  1  0     0  0
 17 22  1  0     0  0
 18 19  1  0     0  0
 19 20  2  0     0  0
 20 21  1  0     0  0
 21 22  1  0     0  0
  5  6  1  0     0  0
 21 23  2  0     0  0
 19 24  1  0     0  0
  9 11  2  0     0  0
 34 36  2  0     0  0
 32 37  1  0     0  0
 45 50  1  0     0  0
 50 33  1  0     0  0
 50 51  1  0     0  0
 27 28  1  0     0  0
 51 52  2  0     0  0
 28 31  2  0     0  0
 52 53  1  0     0  0
 38 39  2  0     0  0
 53 54  2  0     0  0
 26 27  2  0     0  0
 54 55  1  0     0  0
 39 40  1  0     0  0
 55 56  2  0     0  0
 56 51  1  0     0  0
 40 43  2  0     0  0
 54 25  1  0     0  0
 30 29  2  0     0  0
 42 41  2  0     0  0
 41 38  1  0     0  0
 42 43  1  0     0  0
 29 26  1  0     0  0
 30 35  1  0     0  0
 31 32  1  0     0  0
 32 33  2  0     0  0
 33 34  1  0     0  0
 34 35  1  0     0  0
 42 47  1  0     0  0
 43 44  1  0     0  0
 44 45  2  0     0  0
 45 46  1  0     0  0
 46 47  1  0     0  0
 30 31  1  0     0  0
 46 48  2  0     0  0
 44 49  1  0     0  0
M  END
>  <prID>
58

>  <IDDB>
16150

>  <pIC50_HIV_Integrase>
6.247425011

>  <Q>
-1.968890685

>  <Activity_Integrase>
Active_Integrase

NA
NA
NA
NA
$$$$

  Accelrys05311914342D 1   1.00000     0.00000     0

 32 36  0     0  0            999 V2000
   -1.0125    0.2708    0.0000 C   0  0  0  0  0  0           0  0  0
    0.9917    0.2333    0.0000 C   0  0  0  0  0  0           0  0  0
   -1.8000   -0.1000    0.0000 C   0  0  0  0  0  0           0  0  0
    1.7792   -0.1375    0.0000 C   0  0  0  0  0  0           0  0  0
   -1.0167    1.0083    0.0000 C   0  0  0  0  0  0           0  0  0
    0.9958    0.9708    0.0000 C   0  0  0  0  0  0           0  0  0
    0.0375   -0.1792    0.0000 C   0  0  3  0  0  0           0  0  0
   -1.8042    1.3667    0.0000 O   0  0  0  0  0  0           0  0  0
    1.7833    1.3292    0.0000 O   0  0  0  0  0  0           0  0  0
    2.5583    0.2333    0.0000 C   0  0  0  0  0  0           0  0  0
   -2.5792    0.2708    0.0000 C   0  0  0  0  0  0           0  0  0
   -2.5833    1.0083    0.0000 C   0  0  0  0  0  0           0  0  0
    2.5625    0.9708    0.0000 C   0  0  0  0  0  0           0  0  0
    0.0208   -0.9167    0.0000 C   0  0  0  0  0  0           0  0  0
   -0.4583    1.3542    0.0000 O   0  0  0  0  0  0           0  0  0
    0.4375    1.3167    0.0000 O   0  0  0  0  0  0           0  0  0
   -1.8000   -0.8333    0.0000 O   0  0  0  0  0  0           0  0  0
    1.7792   -0.8667    0.0000 O   0  0  0  0  0  0           0  0  0
   -0.7625   -1.2792    0.0000 C   0  0  0  0  0  0           0  0  0
    0.8000   -1.2792    0.0000 C   0  0  0  0  0  0           0  0  0
    0.0208   -2.3792    0.0000 C   0  0  0  0  0  0           0  0  0
    0.8000   -2.0125    0.0000 C   0  0  0  0  0  0           0  0  0
   -0.7625   -2.0125    0.0000 C   0  0  0  0  0  0           0  0  0
    0.0167   -3.2042    0.0000 Cl  0  0  0  0  0  0           0  0  0
   -3.3500   -0.1000    0.0000 C   0  0  0  0  0  0           0  0  0
    3.3333   -0.1375    0.0000 C   0  0  0  0  0  0           0  0  0
    3.3375    1.3292    0.0000 C   0  0  0  0  0  0           0  0  0
   -3.3542    1.3667    0.0000 C   0  0  0  0  0  0           0  0  0
    4.1292    0.2333    0.0000 C   0  0  0  0  0  0           0  0  0
   -4.1458    0.2708    0.0000 C   0  0  0  0  0  0           0  0  0
   -4.1500    1.0083    0.0000 C   0  0  0  0  0  0           0  0  0
    4.1333    0.9708    0.0000 C   0  0  0  0  0  0           0  0  0
  2  7  1  0     0  0
  3  1  2  0     0  0
  4  2  2  0     0  0
  5  1  1  0     0  0
  6  2  1  0     0  0
  7  1  1  0     0  0
  8  5  1  0     0  0
  9  6  1  0     0  0
 10  4  1  0     0  0
 11  3  1  0     0  0
 12  8  1  0     0  0
 13  9  1  0     0  0
 14  7  1  0     0  0
 15  5  2  0     0  0
 16  6  2  0     0  0
 17  3  1  0     0  0
 18  4  1  0     0  0
 19 14  2  0     0  0
 20 14  1  0     0  0
 21 22  1  0     0  0
 22 20  2  0     0  0
 23 19  1  0     0  0
 24 21  1  0     0  0
 25 11  1  0     0  0
 26 10  1  0     0  0
 27 13  1  0     0  0
 28 12  1  0     0  0
 29 26  2  0     0  0
 30 25  2  0     0  0
 31 28  2  0     0  0
 32 27  2  0     0  0
 12 11  2  0     0  0
 21 23  2  0     0  0
 31 30  1  0     0  0
 13 10  2  0     0  0
 32 29  1  0     0  0
M  END
>  <prID>
59

>  <IDDB>
16327

>  <pIC50_HIV_Integrase>
4.823908741

>  <Q>
-1.504231134

>  <Activity_Integrase>
Inactive_Integrase

NA
NA
NA
NA
$$$$

  Accelrys05311914342D 1   1.00000     0.00000     0

 24 26  0     0  0            999 V2000
   -2.7000    0.7750    0.0000 S   0  0  3  0  0  0           0  0  0
   -3.0417   -0.4125    0.0000 N   0  0  0  0  0  0           0  0  0
    4.1083   -0.4250    0.0000 C   0  0  3  0  0  0           0  0  0
    4.8167   -1.4417    0.0000 C   0  0  0  0  0  0           0  0  0
    4.8500    0.5625    0.0000 C   0  0  0  0  0  0           0  0  0
   -4.2458   -0.7250    0.0000 C   0  0  0  0  0  0           0  0  0
    2.8667   -0.4000    0.0000 N   0  0  0  0  0  0           0  0  0
    6.0083   -1.0833    0.0000 N   0  0  0  0  0  0           0  0  0
    6.0333    0.1583    0.0000 N   0  0  0  0  0  0           0  0  0
   -5.2042    0.0833    0.0000 N   0  0  0  0  0  0           0  0  0
   -1.4583    0.7500    0.0000 C   0  0  0  0  0  0           0  0  0
    2.2667    0.6792    0.0000 N   0  0  0  0  0  0           0  0  0
   -4.7208   -1.8625    0.0000 S   0  0  0  0  0  0           0  0  0
   -2.5708    2.0042    0.0000 O   0  0  0  0  0  0           0  0  0
   -3.9208    1.0125    0.0000 O   0  0  0  0  0  0           0  0  0
    4.4167   -2.6125    0.0000 N   0  0  0  0  0  0           0  0  0
   -6.2375   -0.5750    0.0000 C   0  0  0  0  0  0           0  0  0
    4.4917    1.7458    0.0000 O   0  0  0  0  0  0           0  0  0
   -5.9458   -1.7792    0.0000 C   0  0  0  0  0  0           0  0  0
   -0.8208    1.8042    0.0000 C   0  0  0  0  0  0           0  0  0
   -0.8583   -0.3375    0.0000 C   0  0  0  0  0  0           0  0  0
    1.0250    0.7000    0.0000 C   0  0  0  0  0  0           0  0  0
    0.3833   -0.3625    0.0000 C   0  0  0  0  0  0           0  0  0
    0.4167    1.7958    0.0000 C   0  0  0  0  0  0           0  0  0
  2  1  1  0     0  0
  3  7  1  0     0  0
  4  3  1  0     0  0
  5  3  1  0     0  0
  6  2  1  0     0  0
  7 12  2  0     0  0
  8  4  1  0     0  0
  9  5  1  0     0  0
 10  6  2  0     0  0
 11  1  1  0     0  0
 12 22  1  0     0  0
 13  6  1  0     0  0
 14  1  2  0     0  0
 15  1  2  0     0  0
 16  4  2  0     0  0
 17 10  1  0     0  0
 18  5  2  0     0  0
 19 13  1  0     0  0
 20 11  2  0     0  0
 21 11  1  0     0  0
 22 23  1  0     0  0
 23 21  2  0     0  0
 24 20  1  0     0  0
 24 22  2  0     0  0
 19 17  2  0     0  0
  9  8  1  0     0  0
M  END
>  <prID>
60

>  <IDDB>
16872

>  <pIC50_HIV_Integrase>
4.214670165

>  <Q>
-3.060782853

>  <Activity_Integrase>
Inactive_Integrase

NA
NA
NA
NA
$$$$

  Accelrys05311914342D 1   1.00000     0.00000     0

 26 28  0     0  0            999 V2000
   -2.4958    0.2000    0.0000 C   0  0  0  0  0  0           0  0  0
   -1.7833   -0.2167    0.0000 C   0  0  0  0  0  0           0  0  0
   -3.2167   -0.2083    0.0000 C   0  0  0  0  0  0           0  0  0
   -1.0667    0.2000    0.0000 C   0  0  0  0  0  0           0  0  0
   -0.3500   -0.2083    0.0000 N   0  0  0  0  0  0           0  0  0
   -3.9292    0.2042    0.0000 C   0  0  0  0  0  0           0  0  0
   -2.4958    1.0250    0.0000 C   0  0  0  0  0  0           0  0  0
    3.9167   -0.2000    0.0000 C   0  0  0  0  0  0           0  0  0
    1.0750   -0.2000    0.0000 C   0  0  0  0  0  0           0  0  0
    1.7833    0.2125    0.0000 C   0  0  0  0  0  0           0  0  0
   -1.0667    1.0292    0.0000 C   0  0  0  0  0  0           0  0  0
    3.9208   -1.0250    0.0000 C   0  0  0  0  0  0           0  0  0
   -3.2208   -1.0333    0.0000 O   0  0  0  0  0  0           0  0  0
    0.3625    0.2042    0.0000 C   0  0  0  0  0  0           0  0  0
    3.2042    0.2125    0.0000 C   0  0  0  0  0  0           0  0  0
   -3.9375    1.0292    0.0000 O   0  0  0  0  0  0           0  0  0
   -1.7833    1.4417    0.0000 C   0  0  0  0  0  0           0  0  0
    2.5000   -0.2000    0.0000 C   0  0  0  0  0  0           0  0  0
    3.2042   -1.4375    0.0000 C   0  0  0  0  0  0           0  0  0
   -0.3583    1.4417    0.0000 C   0  0  0  0  0  0           0  0  0
   -1.7875   -1.0375    0.0000 O   0  0  0  0  0  0           0  0  0
   -4.6458   -0.2000    0.0000 O   0  0  0  0  0  0           0  0  0
    4.6250    0.2208    0.0000 O   0  0  0  0  0  0           0  0  0
    0.3583    1.0375    0.0000 C   0  0  0  0  0  0           0  0  0
    2.4958   -1.0208    0.0000 C   0  0  0  0  0  0           0  0  0
    4.6333   -1.4375    0.0000 O   0  0  0  0  0  0           0  0  0
  2  1  1  0     0  0
  3  1  1  0     0  0
  4  2  2  0     0  0
  5  4  1  0     0  0
  6  3  1  0     0  0
  7  1  2  0     0  0
  8 15  2  0     0  0
  9 14  1  0     0  0
 10  9  2  0     0  0
 11 17  2  0     0  0
 12 19  2  0     0  0
 13  3  2  0     0  0
 14  5  2  0     0  0
 15 18  1  0     0  0
 16  6  2  0     0  0
 17  7  1  0     0  0
 18 10  1  0     0  0
 19 25  1  0     0  0
 20 11  1  0     0  0
 21  2  1  0     0  0
 22  6  1  0     0  0
 23  8  1  0     0  0
 24 20  2  0     0  0
 25 18  2  0     0  0
 26 12  1  0     0  0
 11  4  1  0     0  0
 24 14  1  0     0  0
 12  8  1  0     0  0
M  END
>  <prID>
61

>  <IDDB>
22373

>  <pIC50_HIV_Integrase>
4

>  <Q>
-1.802952747

>  <Activity_Integrase>
Inactive_Integrase

NA
NA
NA
NA
$$$$

  Accelrys05311914342D 1   1.00000     0.00000     0

 43 46  0     0  0            999 V2000
    7.0542   -3.0375    0.0000 C   0  0  2  0  0  0           0  0  0
    7.7667   -2.6250    0.0000 C   0  0  0  0  0  0           0  0  0
    8.4792   -3.0375    0.0000 C   0  0  0  0  0  0           0  0  0
    9.1917   -2.6250    0.0000 C   0  0  0  0  0  0           0  0  0
    9.9042   -3.0375    0.0000 C   0  0  3  0  0  0           0  0  0
   10.6167   -2.6250    0.0000 C   0  0  0  0  0  0           0  0  0
    6.3532   -4.2792    0.0000 C   0  0  1  0  0  0           0  0  0
    6.3532   -5.1042    0.0000 C   0  0  0  0  0  0           0  0  0
    7.7772   -5.1042    0.0000 C   0  0  0  0  0  0           0  0  0
    7.7772   -4.2792    0.0000 C   0  0  0  0  0  0           0  0  0
    7.0611   -3.8625    0.0000 C   0  0  2  0  0  0           0  0  0
    4.2167   -5.5125    0.0000 C   0  0  1  0  0  0           0  0  0
    4.2167   -6.3375    0.0000 C   0  0  1  0  0  0           0  0  0
    4.9287   -6.7458    0.0000 C   0  0  0  0  0  0           0  0  0
    5.6407   -6.3375    0.0000 C   0  0  0  0  0  0           0  0  0
    5.6407   -5.5125    0.0000 C   0  0  0  0  0  0           0  0  0
    4.9287   -5.0958    0.0000 C   0  0  0  0  0  0           0  0  0
    2.7917   -5.5125    0.0000 C   0  0  1  0  0  0           0  0  0
    2.7917   -6.3375    0.0000 C   0  0  1  0  0  0           0  0  0
    3.5037   -6.7458    0.0000 C   0  0  3  0  0  0           0  0  0
    3.5037   -5.0958    0.0000 C   0  0  0  0  0  0           0  0  0
    4.9292   -4.2792    0.0000 C   0  0  2  0  0  0           0  0  0
    5.6412   -3.8625    0.0000 C   0  0  2  0  0  0           0  0  0
    2.0750   -5.1000    0.0000 O   0  0  0  0  0  0           0  0  0
    2.0750   -6.7458    0.0000 O   0  0  0  0  0  0           0  0  0
    2.7833   -7.1542    0.0000 C   0  0  0  0  0  0           0  0  0
    3.7125   -7.5417    0.0000 C   0  0  0  0  0  0           0  0  0
    4.2125   -7.1625    0.0000 H   0  0  0  0  0  0           0  0  0
    4.2125   -4.6875    0.0000 C   0  0  0  0  0  0           0  0  0
    4.2125   -3.8667    0.0000 O   0  0  0  0  0  0           0  0  0
    5.6333   -3.0375    0.0000 O   0  0  0  0  0  0           0  0  0
    4.9167   -2.6250    0.0000 C   0  0  0  0  0  0           0  0  0
    4.9125   -1.8000    0.0000 C   0  0  0  0  0  0           0  0  0
    4.2000   -3.0333    0.0000 O   0  0  0  0  0  0           0  0  0
    6.3458   -3.4542    0.0000 C   0  0  0  0  0  0           0  0  0
    6.3375   -2.6250    0.0000 C   0  0  0  0  0  0           0  0  0
    9.1875   -1.8000    0.0000 C   0  0  0  0  0  0           0  0  0
    9.9000   -3.8625    0.0000 C   0  0  0  0  0  0           0  0  0
    7.7708   -3.4458    0.0000 H   0  0  0  0  0  0           0  0  0
    1.3583   -6.3333    0.0000 S   0  0  3  0  0  0           0  0  0
    0.5875   -6.9917    0.0000 O   0  0  0  0  0  0           0  0  0
    2.0250   -5.8375    0.0000 O   0  0  0  0  0  0           0  0  0
    0.6417   -5.9208    0.0000 O   0  0  0  0  0  0           0  0  0
 22 17  1  0     0  0
  8  9  2  0     0  0
 12 13  1  0     0  0
 22 23  1  0     0  0
 16  8  1  0     0  0
  7 23  1  0     0  0
  5  6  1  0     0  0
 18 24  1  6     0  0
  7  8  1  0     0  0
 19 25  1  1     0  0
  1  2  1  0     0  0
 20 26  1  0     0  0
  3  4  1  0     0  0
 20 27  1  0     0  0
 13 28  1  6     0  0
  4  5  1  0     0  0
 12 29  1  1     0  0
 12 17  1  0     0  0
 22 30  1  1     0  0
 13 14  1  0     0  0
 23 31  1  6     0  0
 14 15  1  0     0  0
 31 32  1  0     0  0
 15 16  1  0     0  0
 32 33  1  0     0  0
 16 17  2  0     0  0
 32 34  2  0     0  0
 18 19  1  0     0  0
  7 35  1  1     0  0
 11  1  1  0     0  0
  2  3  1  0     0  0
  1 36  1  6     0  0
  9 10  1  0     0  0
  4 37  2  0     0  0
 10 11  1  0     0  0
  5 38  1  0     0  0
 11  7  1  0     0  0
 11 39  1  6     0  0
 18 21  1  0     0  0
 25 40  1  0     0  0
 19 20  1  0     0  0
 40 41  1  0     0  0
 20 13  1  0     0  0
 40 42  2  0     0  0
 12 21  1  0     0  0
 40 43  2  0     0  0
M  END
>  <prID>
62

>  <IDDB>
22528

>  <pIC50_HIV_Integrase>
5.045757491

>  <Q>
-7.793106969

>  <Activity_Integrase>
Inactive_Integrase

NA
NA
NA
NA
$$$$

  Accelrys05311914342D 1   1.00000     0.00000     0

 45 51  0     0  0            999 V2000
   -1.0875   -1.7708    0.0000 C   0  0  0  0  0  0           0  0  0
   -1.0875   -1.0167    0.0000 C   0  0  0  0  0  0           0  0  0
    1.5125    1.2250    0.0000 C   0  0  0  0  0  0           0  0  0
   -2.3875   -1.7708    0.0000 C   0  0  0  0  0  0           0  0  0
    1.5125    0.4750    0.0000 C   0  0  0  0  0  0           0  0  0
    2.1667    1.6000    0.0000 N   0  0  3  0  0  0           0  0  0
   -1.7417   -2.1458    0.0000 C   0  0  0  0  0  0           0  0  0
   -1.7417   -0.6458    0.0000 C   0  0  0  0  0  0           0  0  0
    0.2083   -1.0167    0.0000 C   0  0  0  0  0  0           0  0  0
   -2.3875   -1.0167    0.0000 C   0  0  0  0  0  0           0  0  0
    0.8583   -0.6458    0.0000 C   0  0  0  0  0  0           0  0  0
    0.2083   -1.7708    0.0000 C   0  0  0  0  0  0           0  0  0
   -0.4417   -0.6458    0.0000 C   0  0  0  0  0  0           0  0  0
    0.8583    0.1000    0.0000 C   0  0  0  0  0  0           0  0  0
    2.8125    1.2208    0.0000 N   0  0  0  0  0  0           0  0  0
   -0.4417   -2.1458    0.0000 C   0  0  0  0  0  0           0  0  0
   -3.0333   -2.1417    0.0000 C   0  0  0  0  0  0           0  0  0
    2.1583    0.1000    0.0000 C   0  0  0  0  0  0           0  0  0
    1.5125   -1.0167    0.0000 C   0  0  0  0  0  0           0  0  0
   -3.6750   -1.7708    0.0000 C   0  0  0  0  0  0           0  0  0
   -3.0333   -0.6417    0.0000 C   0  0  0  0  0  0           0  0  0
   -3.6750   -1.0167    0.0000 C   0  0  0  0  0  0           0  0  0
    2.8125    0.4750    0.0000 C   0  0  0  0  0  0           0  0  0
    2.1583   -0.6458    0.0000 C   0  0  0  0  0  0           0  0  0
    0.8583   -2.1458    0.0000 C   0  0  0  0  0  0           0  0  0
    2.1750    4.5958    0.0000 C   0  0  0  0  0  0           0  0  0
    2.1667    2.3458    0.0000 C   0  0  0  0  0  0           0  0  0
    0.8667    1.6000    0.0000 O   0  0  0  0  0  0           0  0  0
   -1.7417   -2.8958    0.0000 O   0  0  0  0  0  0           0  0  0
   -1.7417    0.0958    0.0000 O   0  0  0  0  0  0           0  0  0
    1.5125   -1.7708    0.0000 C   0  0  0  0  0  0           0  0  0
    2.1708    3.8458    0.0000 C   0  0  0  0  0  0           0  0  0
    1.5250    4.9750    0.0000 O   0  0  0  0  0  0           0  0  0
    1.5167    2.7250    0.0000 C   0  0  0  0  0  0           0  0  0
    2.8167    2.7208    0.0000 C   0  0  0  0  0  0           0  0  0
    2.8167    3.4750    0.0000 C   0  0  0  0  0  0           0  0  0
    1.5167    3.4792    0.0000 C   0  0  0  0  0  0           0  0  0
    0.2125    0.4750    0.0000 O   0  0  0  0  0  0           0  0  0
   -0.4417    0.0958    0.0000 O   0  0  0  0  0  0           0  0  0
   -3.0333   -2.8958    0.0000 O   0  0  0  0  0  0           0  0  0
   -0.4417   -2.8958    0.0000 O   0  0  0  0  0  0           0  0  0
   -4.3250   -0.6542    0.0000 O   0  0  0  0  0  0           0  0  0
    2.8250    4.9708    0.0000 O   0  0  0  0  0  0           0  0  0
   -4.3208   -2.1417    0.0000 C   0  0  0  0  0  0           0  0  0
   -1.0833   -3.2625    0.0000 C   0  0  0  0  0  0           0  0  0
  2  1  2  0     0  0
  3  5  1  0     0  0
  4  7  1  0     0  0
  5 14  2  0     0  0
  6  3  1  0     0  0
  7  1  1  0     0  0
  8  2  1  0     0  0
  9 13  2  0     0  0
 10  8  1  0     0  0
 11  9  1  0     0  0
 12 16  2  0     0  0
 13  2  1  0     0  0
 14 11  1  0     0  0
 15 23  2  0     0  0
 16  1  1  0     0  0
 17  4  1  0     0  0
 18  5  1  0     0  0
 19 11  2  0     0  0
 20 17  2  0     0  0
 21 10  1  0     0  0
 22 21  2  0     0  0
 23 18  1  0     0  0
 24 19  1  0     0  0
 25 12  1  0     0  0
 26 32  1  0     0  0
 27  6  1  0     0  0
 28  3  2  0     0  0
 29  7  2  0     0  0
 30  8  2  0     0  0
 31 25  1  0     0  0
 32 36  1  0     0  0
 33 26  2  0     0  0
 34 27  2  0     0  0
 35 27  1  0     0  0
 36 35  2  0     0  0
 37 34  1  0     0  0
 38 14  1  0     0  0
 39 13  1  0     0  0
 40 17  1  0     0  0
 41 16  1  0     0  0
 42 22  1  0     0  0
 43 26  1  0     0  0
 44 20  1  0     0  0
 45 41  1  0     0  0
 12  9  1  0     0  0
  4 10  2  0     0  0
 31 19  1  0     0  0
 20 22  1  0     0  0
 18 24  2  0     0  0
 15  6  1  0     0  0
 32 37  2  0     0  0
M  END
>  <prID>
63

>  <IDDB>
22798

>  <pIC50_HIV_Integrase>
5.462180905

>  <Q>
-3.57197753

>  <Activity_Integrase>
Inactive_Integrase

NA
NA
NA
NA
$$$$

  Accelrys05311914342D 1   1.00000     0.00000     0

 39 44  0     0  0            999 V2000
   -0.7875   -1.1417    0.0000 C   0  0  0  0  0  0           0  0  0
   -0.7875   -0.3917    0.0000 C   0  0  0  0  0  0           0  0  0
   -2.0875   -1.1417    0.0000 C   0  0  0  0  0  0           0  0  0
    1.8125    1.1042    0.0000 C   0  0  0  0  0  0           0  0  0
   -1.4375   -1.5167    0.0000 C   0  0  0  0  0  0           0  0  0
   -1.4375   -0.0167    0.0000 C   0  0  0  0  0  0           0  0  0
    0.5083   -0.3917    0.0000 C   0  0  0  0  0  0           0  0  0
   -2.0875   -0.3917    0.0000 C   0  0  0  0  0  0           0  0  0
    1.1625   -0.0167    0.0000 C   0  0  0  0  0  0           0  0  0
    0.5083   -1.1417    0.0000 C   0  0  0  0  0  0           0  0  0
    1.8125    1.8583    0.0000 C   0  0  0  0  0  0           0  0  0
   -0.1375   -0.0167    0.0000 C   0  0  0  0  0  0           0  0  0
    1.1625    0.7292    0.0000 C   0  0  0  0  0  0           0  0  0
   -0.1375   -1.5167    0.0000 C   0  0  0  0  0  0           0  0  0
   -2.7333   -1.5167    0.0000 C   0  0  0  0  0  0           0  0  0
    2.4625    0.7292    0.0000 C   0  0  0  0  0  0           0  0  0
    3.1125    1.8542    0.0000 N   0  0  0  0  0  0           0  0  0
    2.4667    2.2292    0.0000 N   0  0  3  0  0  0           0  0  0
    1.8125   -0.3917    0.0000 C   0  0  0  0  0  0           0  0  0
   -3.3750   -1.1417    0.0000 C   0  0  0  0  0  0           0  0  0
   -2.7333   -0.0167    0.0000 C   0  0  0  0  0  0           0  0  0
   -3.3750   -0.3917    0.0000 C   0  0  0  0  0  0           0  0  0
    3.1125    1.1042    0.0000 C   0  0  0  0  0  0           0  0  0
    2.4625   -0.0167    0.0000 C   0  0  0  0  0  0           0  0  0
    1.1625   -1.5167    0.0000 C   0  0  0  0  0  0           0  0  0
   -1.4375   -2.2625    0.0000 O   0  0  0  0  0  0           0  0  0
   -1.4375    0.7250    0.0000 O   0  0  0  0  0  0           0  0  0
    1.8125   -1.1417    0.0000 C   0  0  0  0  0  0           0  0  0
    1.1667    2.2333    0.0000 O   0  0  0  0  0  0           0  0  0
    0.5125    1.1042    0.0000 O   0  0  0  0  0  0           0  0  0
   -0.1375    0.7250    0.0000 O   0  0  0  0  0  0           0  0  0
   -2.7333   -2.2583    0.0000 O   0  0  0  0  0  0           0  0  0
   -0.1375   -2.2625    0.0000 O   0  0  0  0  0  0           0  0  0
   -4.0250   -0.0208    0.0000 O   0  0  0  0  0  0           0  0  0
    2.4667    2.9792    0.0000 C   0  0  0  0  0  0           0  0  0
   -4.0208   -1.5167    0.0000 C   0  0  0  0  0  0           0  0  0
   -0.7833   -2.6333    0.0000 C   0  0  0  0  0  0           0  0  0
    3.1167    3.3542    0.0000 C   0  0  0  0  0  0           0  0  0
    3.1125    4.1000    0.0000 C   0  0  0  0  0  0           0  0  0
  2  1  2  0     0  0
  3  5  1  0     0  0
  4 13  2  0     0  0
  5  1  1  0     0  0
  6  2  1  0     0  0
  7 12  2  0     0  0
  8  6  1  0     0  0
  9  7  1  0     0  0
 10 14  2  0     0  0
 11  4  1  0     0  0
 12  2  1  0     0  0
 13  9  1  0     0  0
 14  1  1  0     0  0
 15  3  1  0     0  0
 16  4  1  0     0  0
 17 23  2  0     0  0
 18 11  1  0     0  0
 19  9  2  0     0  0
 20 15  2  0     0  0
 21  8  1  0     0  0
 22 21  2  0     0  0
 23 16  1  0     0  0
 24 19  1  0     0  0
 25 10  1  0     0  0
 26  5  2  0     0  0
 27  6  2  0     0  0
 28 25  1  0     0  0
 29 11  2  0     0  0
 30 13  1  0     0  0
 31 12  1  0     0  0
 32 15  1  0     0  0
 33 14  1  0     0  0
 34 22  1  0     0  0
 35 18  1  0     0  0
 36 20  1  0     0  0
 37 33  1  0     0  0
 38 35  1  0     0  0
 39 38  1  0     0  0
 10  7  1  0     0  0
  3  8  2  0     0  0
 28 19  1  0     0  0
 20 22  1  0     0  0
 16 24  2  0     0  0
 17 18  1  0     0  0
M  END
>  <prID>
64

>  <IDDB>
22799

>  <pIC50_HIV_Integrase>
5.197910742

>  <Q>
-3.800644019

>  <Activity_Integrase>
Inactive_Integrase

NA
NA
NA
NA
$$$$

  Accelrys05311914342D 1   1.00000     0.00000     0

 42 47  0     0  0            999 V2000
   -1.1000   -1.4958    0.0000 C   0  0  0  0  0  0           0  0  0
   -1.1000   -0.7250    0.0000 C   0  0  0  0  0  0           0  0  0
   -2.4333   -1.4958    0.0000 C   0  0  0  0  0  0           0  0  0
    1.5583    0.8000    0.0000 C   0  0  0  0  0  0           0  0  0
   -1.7625   -1.8792    0.0000 C   0  0  0  0  0  0           0  0  0
   -1.7625   -0.3417    0.0000 C   0  0  0  0  0  0           0  0  0
    0.2208   -0.7250    0.0000 C   0  0  0  0  0  0           0  0  0
   -2.4333   -0.7250    0.0000 C   0  0  0  0  0  0           0  0  0
    0.8958   -0.3417    0.0000 C   0  0  0  0  0  0           0  0  0
    0.2208   -1.4958    0.0000 C   0  0  0  0  0  0           0  0  0
    1.5583    1.5708    0.0000 C   0  0  0  0  0  0           0  0  0
   -0.4375   -0.3417    0.0000 C   0  0  0  0  0  0           0  0  0
    0.8958    0.4167    0.0000 C   0  0  0  0  0  0           0  0  0
   -0.4375   -1.8792    0.0000 C   0  0  0  0  0  0           0  0  0
   -3.0875   -1.8750    0.0000 C   0  0  0  0  0  0           0  0  0
    2.2208    0.4167    0.0000 C   0  0  0  0  0  0           0  0  0
    2.2250    1.9500    0.0000 N   0  0  3  0  0  0           0  0  0
    2.8917    1.5667    0.0000 N   0  0  0  0  0  0           0  0  0
    1.5583   -0.7250    0.0000 C   0  0  0  0  0  0           0  0  0
   -3.7458   -1.4958    0.0000 C   0  0  0  0  0  0           0  0  0
   -3.0875   -0.3375    0.0000 C   0  0  0  0  0  0           0  0  0
   -3.7458   -0.7250    0.0000 C   0  0  0  0  0  0           0  0  0
    2.8917    0.8000    0.0000 C   0  0  0  0  0  0           0  0  0
    2.2208   -0.3417    0.0000 C   0  0  0  0  0  0           0  0  0
    0.8958   -1.8792    0.0000 C   0  0  0  0  0  0           0  0  0
   -1.7625   -2.6417    0.0000 O   0  0  0  0  0  0           0  0  0
   -1.7667    0.1917    0.0000 O   0  0  0  0  0  0           0  0  0
    1.5583   -1.4958    0.0000 C   0  0  0  0  0  0           0  0  0
    1.1042    1.8792    0.0000 O   0  0  0  0  0  0           0  0  0
    3.5458    4.2333    0.0000 C   0  0  0  0  0  0           0  0  0
    4.1958    3.8625    0.0000 O   0  0  0  0  0  0           0  0  0
    2.2250    2.7167    0.0000 C   0  0  0  0  0  0           0  0  0
   -0.4375    0.4125    0.0000 O   0  0  0  0  0  0           0  0  0
    0.2250    0.8000    0.0000 O   0  0  0  0  0  0           0  0  0
   -3.0875   -2.6375    0.0000 O   0  0  0  0  0  0           0  0  0
   -0.4375   -2.6417    0.0000 O   0  0  0  0  0  0           0  0  0
   -4.4042   -0.3500    0.0000 O   0  0  0  0  0  0           0  0  0
    2.9000    3.8667    0.0000 O   0  0  0  0  0  0           0  0  0
    2.8958    3.1000    0.0000 C   0  0  0  0  0  0           0  0  0
   -4.4042   -1.8750    0.0000 C   0  0  0  0  0  0           0  0  0
    3.5458    4.9833    0.0000 C   0  0  0  0  0  0           0  0  0
   -1.1000   -3.0208    0.0000 C   0  0  0  0  0  0           0  0  0
  2  1  2  0     0  0
  3  5  1  0     0  0
  4 13  2  0     0  0
  5  1  1  0     0  0
  6  2  1  0     0  0
  7 12  2  0     0  0
  8  6  1  0     0  0
  9  7  1  0     0  0
 10 14  2  0     0  0
 11  4  1  0     0  0
 12  2  1  0     0  0
 13  9  1  0     0  0
 14  1  1  0     0  0
 15  3  1  0     0  0
 16  4  1  0     0  0
 17 11  1  0     0  0
 18 23  2  0     0  0
 19  9  2  0     0  0
 20 15  2  0     0  0
 21  8  1  0     0  0
 22 21  2  0     0  0
 23 16  1  0     0  0
 24 19  1  0     0  0
 25 10  1  0     0  0
 26  5  2  0     0  0
 27  6  2  0     0  0
 28 25  1  0     0  0
 29 11  2  0     0  0
 30 38  1  0     0  0
 31 30  2  0     0  0
 32 17  1  0     0  0
 33 12  1  0     0  0
 34 13  1  0     0  0
 35 15  1  0     0  0
 36 14  1  0     0  0
 37 22  1  0     0  0
 38 39  1  0     0  0
 39 32  1  0     0  0
 40 20  1  0     0  0
 41 30  1  0     0  0
 42 36  1  0     0  0
 10  7  1  0     0  0
  3  8  2  0     0  0
 28 19  1  0     0  0
 20 22  1  0     0  0
 16 24  2  0     0  0
 18 17  1  0     0  0
M  END
>  <prID>
65

>  <IDDB>
22811

>  <pIC50_HIV_Integrase>
5.202040356

>  <Q>
-4.257123594

>  <Activity_Integrase>
Inactive_Integrase

NA
NA
NA
NA
$$$$

  Accelrys05311914352D 1   1.00000     0.00000     0

 42 48  0     0  0            999 V2000
   -1.6667   -0.8250    0.0000 C   0  0  0  0  0  0           0  0  0
   -1.2583   -0.1375    0.0000 C   0  0  0  0  0  0           0  0  0
    2.4542    0.5458    0.0000 C   0  0  0  0  0  0           0  0  0
   -2.9042   -0.1333    0.0000 C   0  0  0  0  0  0           0  0  0
    2.0375   -0.1458    0.0000 C   0  0  0  0  0  0           0  0  0
    3.2792    0.5417    0.0000 N   0  0  3  0  0  0           0  0  0
   -2.4958   -0.8208    0.0000 C   0  0  0  0  0  0           0  0  0
   -1.6625    0.5542    0.0000 C   0  0  0  0  0  0           0  0  0
   -0.0208   -0.8292    0.0000 C   0  0  0  0  0  0           0  0  0
   -2.4875    0.5583    0.0000 C   0  0  0  0  0  0           0  0  0
    0.8000   -0.8333    0.0000 C   0  0  0  0  0  0           0  0  0
   -0.4375   -1.5250    0.0000 C   0  0  0  0  0  0           0  0  0
   -0.4333   -0.1417    0.0000 C   0  0  0  0  0  0           0  0  0
    1.2167   -0.1458    0.0000 C   0  0  0  0  0  0           0  0  0
    3.6875   -0.1500    0.0000 N   0  0  0  0  0  0           0  0  0
   -1.2625   -1.5208    0.0000 C   0  0  0  0  0  0           0  0  0
   -3.7250   -0.1292    0.0000 C   0  0  0  0  0  0           0  0  0
    2.4500   -0.8375    0.0000 C   0  0  0  0  0  0           0  0  0
    1.2125   -1.5292    0.0000 C   0  0  0  0  0  0           0  0  0
   -4.1417    0.5625    0.0000 C   0  0  0  0  0  0           0  0  0
   -2.9000    1.2542    0.0000 C   0  0  0  0  0  0           0  0  0
   -3.7208    1.2583    0.0000 C   0  0  0  0  0  0           0  0  0
    3.2750   -0.8375    0.0000 C   0  0  0  0  0  0           0  0  0
    2.0375   -1.5333    0.0000 C   0  0  0  0  0  0           0  0  0
   -0.0250   -2.2125    0.0000 C   0  0  0  0  0  0           0  0  0
    2.0500    1.2333    0.0000 O   0  0  0  0  0  0           0  0  0
   -2.9083   -1.5125    0.0000 O   0  0  0  0  0  0           0  0  0
   -1.2542    1.2458    0.0000 O   0  0  0  0  0  0           0  0  0
    3.6917    1.2292    0.0000 C   0  0  0  0  0  0           0  0  0
    0.8000   -2.2167    0.0000 C   0  0  0  0  0  0           0  0  0
   -0.4083    0.8292    0.0000 O   0  0  0  0  0  0           0  0  0
    1.0917    0.7333    0.0000 O   0  0  0  0  0  0           0  0  0
   -4.1417   -0.8125    0.0000 O   0  0  0  0  0  0           0  0  0
   -1.6750   -2.2042    0.0000 O   0  0  0  0  0  0           0  0  0
   -4.1292    1.9417    0.0000 O   0  0  0  0  0  0           0  0  0
   -4.9583    0.5625    0.0000 C   0  0  0  0  0  0           0  0  0
    4.5125    1.2250    0.0000 C   0  0  0  0  0  0           0  0  0
    3.2792    1.9167    0.0000 C   0  0  0  0  0  0           0  0  0
   -2.4958   -2.2000    0.0000 C   0  0  0  0  0  0           0  0  0
    3.6958    2.6042    0.0000 C   0  0  0  0  0  0           0  0  0
    4.9167    1.9125    0.0000 C   0  0  0  0  0  0           0  0  0
    4.5167    2.6000    0.0000 C   0  0  0  0  0  0           0  0  0
  2  1  2  0     0  0
  3  5  1  0     0  0
  4  7  1  0     0  0
  5 14  2  0     0  0
  6  3  1  0     0  0
  7  1  1  0     0  0
  8  2  1  0     0  0
  9 13  2  0     0  0
 10  8  1  0     0  0
 11  9  1  0     0  0
 12 16  2  0     0  0
 13  2  1  0     0  0
 14 11  1  0     0  0
 15 23  2  0     0  0
 16  1  1  0     0  0
 17  4  1  0     0  0
 18  5  1  0     0  0
 19 11  2  0     0  0
 20 17  2  0     0  0
 21 10  1  0     0  0
 22 21  2  0     0  0
 23 18  1  0     0  0
 24 19  1  0     0  0
 25 12  1  0     0  0
 26  3  2  0     0  0
 27  7  2  0     0  0
 28  8  2  0     0  0
 29  6  1  0     0  0
 30 25  1  0     0  0
 31 13  1  0     0  0
 32 14  1  0     0  0
 33 17  1  0     0  0
 34 16  1  0     0  0
 35 22  1  0     0  0
 36 20  1  0     0  0
 37 29  1  0     0  0
 38 29  2  0     0  0
 39 34  1  0     0  0
 40 38  1  0     0  0
 41 37  2  0     0  0
 42 40  2  0     0  0
 12  9  1  0     0  0
  4 10  2  0     0  0
 30 19  1  0     0  0
 20 22  1  0     0  0
 18 24  2  0     0  0
 15  6  1  0     0  0
 42 41  1  0     0  0
M  END
>  <prID>
66

>  <IDDB>
25075

>  <pIC50_HIV_Integrase>
6.387216143

>  <Q>
-2.650644586

>  <Activity_Integrase>
Active_Integrase

NA
NA
NA
NA
$$$$

  Accelrys05311914352D 1   1.00000     0.00000     0

 46 51  0     0  0            999 V2000
   -1.9208   -0.7375    0.0000 C   0  0  0  0  0  0           0  0  0
   -1.9208    0.1625    0.0000 C   0  0  0  0  0  0           0  0  0
   -3.4917   -0.7375    0.0000 C   0  0  0  0  0  0           0  0  0
   -2.7083   -1.1917    0.0000 C   0  0  0  0  0  0           0  0  0
   -2.7083    0.6208    0.0000 C   0  0  0  0  0  0           0  0  0
   -0.3583    0.1625    0.0000 C   0  0  0  0  0  0           0  0  0
   -3.4917    0.1625    0.0000 C   0  0  0  0  0  0           0  0  0
    0.4250    0.6208    0.0000 C   0  0  0  0  0  0           0  0  0
   -0.3583   -0.7375    0.0000 C   0  0  0  0  0  0           0  0  0
    1.2083    1.9792    0.0000 C   0  0  0  0  0  0           0  0  0
   -1.1417    0.6208    0.0000 C   0  0  0  0  0  0           0  0  0
   -1.1417   -1.1917    0.0000 C   0  0  0  0  0  0           0  0  0
    0.4250    1.5208    0.0000 C   0  0  0  0  0  0           0  0  0
   -4.2750   -1.1875    0.0000 C   0  0  0  0  0  0           0  0  0
    1.2083    0.1625    0.0000 C   0  0  0  0  0  0           0  0  0
   -5.0542   -0.7375    0.0000 C   0  0  0  0  0  0           0  0  0
    1.9917    1.5208    0.0000 C   0  0  0  0  0  0           0  0  0
    4.3292   -0.7208    0.0000 C   0  0  0  0  0  0           0  0  0
   -4.2750    0.6208    0.0000 C   0  0  0  0  0  0           0  0  0
   -5.0542    0.1625    0.0000 C   0  0  0  0  0  0           0  0  0
    1.2083    2.8792    0.0000 C   0  0  0  0  0  0           0  0  0
    4.3250    0.1792    0.0000 C   0  0  0  0  0  0           0  0  0
    1.9917    0.6208    0.0000 C   0  0  0  0  0  0           0  0  0
    0.4250   -1.1917    0.0000 C   0  0  0  0  0  0           0  0  0
    3.5500    1.5208    0.0000 N   0  0  0  0  0  0           0  0  0
   -2.7083   -2.0917    0.0000 O   0  0  0  0  0  0           0  0  0
   -2.7083    1.5208    0.0000 O   0  0  0  0  0  0           0  0  0
    1.2083   -0.7375    0.0000 C   0  0  0  0  0  0           0  0  0
    5.1083   -1.1750    0.0000 C   0  0  0  0  0  0           0  0  0
    3.5500    0.6250    0.0000 N   0  0  0  0  0  0           0  0  0
    2.7708    1.9708    0.0000 C   0  0  0  0  0  0           0  0  0
    0.4292    3.3250    0.0000 O   0  0  0  0  0  0           0  0  0
    5.1083    0.6250    0.0000 O   0  0  0  0  0  0           0  0  0
   -1.1417    1.5208    0.0000 O   0  0  0  0  0  0           0  0  0
   -0.3542    1.9708    0.0000 O   0  0  0  0  0  0           0  0  0
   -4.2750   -2.0875    0.0000 O   0  0  0  0  0  0           0  0  0
   -1.1417   -2.0917    0.0000 O   0  0  0  0  0  0           0  0  0
   -5.8375    0.6125    0.0000 O   0  0  0  0  0  0           0  0  0
    1.9875    3.3250    0.0000 O   0  0  0  0  0  0           0  0  0
    5.8875   -0.7208    0.0000 O   0  0  0  0  0  0           0  0  0
   -5.8333   -1.1917    0.0000 C   0  0  0  0  0  0           0  0  0
    3.5500   -1.1792    0.0000 C   0  0  0  0  0  0           0  0  0
    5.1167   -2.0750    0.0000 C   0  0  0  0  0  0           0  0  0
   -1.9208   -2.5375    0.0000 C   0  0  0  0  0  0           0  0  0
    3.5583   -2.0792    0.0000 C   0  0  0  0  0  0           0  0  0
    4.3375   -2.5208    0.0000 C   0  0  0  0  0  0           0  0  0
  2  1  2  0     0  0
  3  4  1  0     0  0
  4  1  1  0     0  0
  5  2  1  0     0  0
  6 11  2  0     0  0
  7  5  1  0     0  0
  8  6  1  0     0  0
  9 12  2  0     0  0
 10 13  2  0     0  0
 11  2  1  0     0  0
 12  1  1  0     0  0
 13  8  1  0     0  0
 14  3  1  0     0  0
 15  8  2  0     0  0
 16 14  2  0     0  0
 17 10  1  0     0  0
 18 22  1  0     0  0
 19  7  1  0     0  0
 20 19  2  0     0  0
 21 10  1  0     0  0
 22 30  1  0     0  0
 23 15  1  0     0  0
 24  9  1  0     0  0
 25 31  2  0     0  0
 26  4  2  0     0  0
 27  5  2  0     0  0
 28 24  1  0     0  0
 29 18  2  0     0  0
 30 25  1  0     0  0
 31 17  1  0     0  0
 32 21  2  0     0  0
 33 22  2  0     0  0
 34 11  1  0     0  0
 35 13  1  0     0  0
 36 14  1  0     0  0
 37 12  1  0     0  0
 38 20  1  0     0  0
 39 21  1  0     0  0
 40 29  1  0     0  0
 41 16  1  0     0  0
 42 18  1  0     0  0
 43 29  1  0     0  0
 44 37  1  0     0  0
 45 42  2  0     0  0
 46 45  1  0     0  0
  9  6  1  0     0  0
  3  7  2  0     0  0
 28 15  1  0     0  0
 16 20  1  0     0  0
 17 23  2  0     0  0
 46 43  2  0     0  0
M  END
>  <prID>
67

>  <IDDB>
25077

>  <pIC50_HIV_Integrase>
5.215382707

>  <Q>
-4.804441289

>  <Activity_Integrase>
Inactive_Integrase

NA
NA
NA
NA
$$$$

  Accelrys05311914352D 1   1.00000     0.00000     0

 38 42  0     0  0            999 V2000
   -0.9500   -1.0000    0.0000 C   0  0  0  0  0  0           0  0  0
   -0.9500   -0.0917    0.0000 C   0  0  0  0  0  0           0  0  0
   -2.5167   -1.0000    0.0000 C   0  0  0  0  0  0           0  0  0
   -1.7333   -1.4500    0.0000 C   0  0  0  0  0  0           0  0  0
   -1.7333    0.3625    0.0000 C   0  0  0  0  0  0           0  0  0
    0.6167   -0.0917    0.0000 C   0  0  0  0  0  0           0  0  0
   -2.5167   -0.0917    0.0000 C   0  0  0  0  0  0           0  0  0
    1.4000    0.3625    0.0000 C   0  0  0  0  0  0           0  0  0
    0.6167   -1.0000    0.0000 C   0  0  0  0  0  0           0  0  0
    2.1833    1.7125    0.0000 C   0  0  0  0  0  0           0  0  0
   -0.1667    0.3625    0.0000 C   0  0  0  0  0  0           0  0  0
   -0.1667   -1.4500    0.0000 C   0  0  0  0  0  0           0  0  0
    1.4000    1.2625    0.0000 C   0  0  0  0  0  0           0  0  0
   -3.3000   -1.4500    0.0000 C   0  0  0  0  0  0           0  0  0
    2.1833   -0.0917    0.0000 C   0  0  0  0  0  0           0  0  0
   -4.0792   -1.0000    0.0000 C   0  0  0  0  0  0           0  0  0
    2.9667    1.2625    0.0000 C   0  0  0  0  0  0           0  0  0
   -3.3000    0.3625    0.0000 C   0  0  0  0  0  0           0  0  0
   -4.0792   -0.0917    0.0000 C   0  0  0  0  0  0           0  0  0
    2.1833    2.6125    0.0000 C   0  0  0  0  0  0           0  0  0
    2.9667    0.3625    0.0000 C   0  0  0  0  0  0           0  0  0
    1.4000   -1.4500    0.0000 C   0  0  0  0  0  0           0  0  0
   -1.7333   -2.3500    0.0000 O   0  0  0  0  0  0           0  0  0
   -1.7333    1.2625    0.0000 O   0  0  0  0  0  0           0  0  0
    2.1833   -1.0000    0.0000 C   0  0  0  0  0  0           0  0  0
    4.5250    1.2625    0.0000 N   0  0  0  0  0  0           0  0  0
    3.7458    1.7125    0.0000 C   0  0  0  0  0  0           0  0  0
    1.4042    3.0625    0.0000 O   0  0  0  0  0  0           0  0  0
   -0.1667    1.2625    0.0000 O   0  0  0  0  0  0           0  0  0
    0.6208    1.7125    0.0000 O   0  0  0  0  0  0           0  0  0
   -3.3000   -2.3500    0.0000 O   0  0  0  0  0  0           0  0  0
   -0.1667   -2.3500    0.0000 O   0  0  0  0  0  0           0  0  0
   -4.8625    0.3542    0.0000 O   0  0  0  0  0  0           0  0  0
    2.9625    3.0625    0.0000 O   0  0  0  0  0  0           0  0  0
    4.5208    0.3625    0.0000 O   0  0  0  0  0  0           0  0  0
   -4.8583   -1.4500    0.0000 C   0  0  0  0  0  0           0  0  0
   -0.9458   -2.8000    0.0000 C   0  0  0  0  0  0           0  0  0
    5.3042   -0.0875    0.0000 C   0  0  0  0  0  0           0  0  0
  2  1  2  0     0  0
  3  4  1  0     0  0
  4  1  1  0     0  0
  5  2  1  0     0  0
  6 11  2  0     0  0
  7  5  1  0     0  0
  8  6  1  0     0  0
  9 12  2  0     0  0
 10 13  2  0     0  0
 11  2  1  0     0  0
 12  1  1  0     0  0
 13  8  1  0     0  0
 14  3  1  0     0  0
 15  8  2  0     0  0
 16 14  2  0     0  0
 17 10  1  0     0  0
 18  7  1  0     0  0
 19 18  2  0     0  0
 20 10  1  0     0  0
 21 15  1  0     0  0
 22  9  1  0     0  0
 23  4  2  0     0  0
 24  5  2  0     0  0
 25 22  1  0     0  0
 26 27  2  0     0  0
 27 17  1  0     0  0
 28 20  2  0     0  0
 29 11  1  0     0  0
 30 13  1  0     0  0
 31 14  1  0     0  0
 32 12  1  0     0  0
 33 19  1  0     0  0
 34 20  1  0     0  0
 35 26  1  0     0  0
 36 16  1  0     0  0
 37 32  1  0     0  0
 38 35  1  0     0  0
  9  6  1  0     0  0
  3  7  2  0     0  0
 25 15  1  0     0  0
 16 19  1  0     0  0
 17 21  2  0     0  0
M  END
>  <prID>
68

>  <IDDB>
25083

>  <pIC50_HIV_Integrase>
4.903089987

>  <Q>
-3.978800773

>  <Activity_Integrase>
Inactive_Integrase

NA
NA
NA
NA
$$$$

  Accelrys05311914352D 1   1.00000     0.00000     0

 37 41  0     0  0            999 V2000
   -0.7833   -1.0583    0.0000 C   0  0  0  0  0  0           0  0  0
   -0.7833   -0.1583    0.0000 C   0  0  0  0  0  0           0  0  0
   -2.3542   -1.0583    0.0000 C   0  0  0  0  0  0           0  0  0
   -1.5667   -1.5125    0.0000 C   0  0  0  0  0  0           0  0  0
    2.3458    1.6542    0.0000 C   0  0  0  0  0  0           0  0  0
   -1.5667    0.2958    0.0000 C   0  0  0  0  0  0           0  0  0
    0.7792   -0.1583    0.0000 C   0  0  0  0  0  0           0  0  0
   -2.3542   -0.1583    0.0000 C   0  0  0  0  0  0           0  0  0
    1.5625    0.2958    0.0000 C   0  0  0  0  0  0           0  0  0
    0.7792   -1.0583    0.0000 C   0  0  0  0  0  0           0  0  0
    0.0000    0.2958    0.0000 C   0  0  0  0  0  0           0  0  0
    3.1333    1.2000    0.0000 C   0  0  0  0  0  0           0  0  0
    0.0000   -1.5125    0.0000 C   0  0  0  0  0  0           0  0  0
    1.5625    1.2000    0.0000 C   0  0  0  0  0  0           0  0  0
   -3.1375   -1.5083    0.0000 C   0  0  0  0  0  0           0  0  0
    2.3458   -0.1583    0.0000 C   0  0  0  0  0  0           0  0  0
   -3.9167   -1.0583    0.0000 C   0  0  0  0  0  0           0  0  0
    3.1333    0.2958    0.0000 C   0  0  0  0  0  0           0  0  0
   -3.1375    0.2958    0.0000 C   0  0  0  0  0  0           0  0  0
    2.3458    2.5542    0.0000 C   0  0  0  0  0  0           0  0  0
   -3.9167   -0.1583    0.0000 C   0  0  0  0  0  0           0  0  0
    3.9125    1.6500    0.0000 C   0  0  0  0  0  0           0  0  0
    1.5625   -1.5125    0.0000 C   0  0  0  0  0  0           0  0  0
   -1.5667   -2.4125    0.0000 O   0  0  0  0  0  0           0  0  0
   -1.5667    1.1958    0.0000 O   0  0  0  0  0  0           0  0  0
    2.3458   -1.0583    0.0000 C   0  0  0  0  0  0           0  0  0
    1.5667    3.0000    0.0000 O   0  0  0  0  0  0           0  0  0
    3.9125    2.5500    0.0000 O   0  0  0  0  0  0           0  0  0
    0.0000    1.1958    0.0000 O   0  0  0  0  0  0           0  0  0
    0.7833    1.6500    0.0000 O   0  0  0  0  0  0           0  0  0
   -3.1375   -2.4083    0.0000 O   0  0  0  0  0  0           0  0  0
    0.0000   -2.4125    0.0000 O   0  0  0  0  0  0           0  0  0
    3.1250    3.0000    0.0000 O   0  0  0  0  0  0           0  0  0
   -4.7000    0.2917    0.0000 O   0  0  0  0  0  0           0  0  0
    4.6875    1.2000    0.0000 O   0  0  0  0  0  0           0  0  0
   -4.6958   -1.5125    0.0000 C   0  0  0  0  0  0           0  0  0
   -0.7833   -2.8625    0.0000 C   0  0  0  0  0  0           0  0  0
  2  1  2  0     0  0
  3  4  1  0     0  0
  4  1  1  0     0  0
  5 14  2  0     0  0
  6  2  1  0     0  0
  7 11  2  0     0  0
  8  6  1  0     0  0
  9  7  1  0     0  0
 10 13  2  0     0  0
 11  2  1  0     0  0
 12  5  1  0     0  0
 13  1  1  0     0  0
 14  9  1  0     0  0
 15  3  1  0     0  0
 16  9  2  0     0  0
 17 15  2  0     0  0
 18 16  1  0     0  0
 19  8  1  0     0  0
 20  5  1  0     0  0
 21 19  2  0     0  0
 22 12  1  0     0  0
 23 10  1  0     0  0
 24  4  2  0     0  0
 25  6  2  0     0  0
 26 23  1  0     0  0
 27 20  2  0     0  0
 28 22  2  0     0  0
 29 11  1  0     0  0
 30 14  1  0     0  0
 31 15  1  0     0  0
 32 13  1  0     0  0
 33 20  1  0     0  0
 34 21  1  0     0  0
 35 22  1  0     0  0
 36 17  1  0     0  0
 37 32  1  0     0  0
 10  7  1  0     0  0
  3  8  2  0     0  0
 26 16  1  0     0  0
 17 21  1  0     0  0
 12 18  2  0     0  0
M  END
>  <prID>
69

>  <IDDB>
25085

>  <pIC50_HIV_Integrase>
4.879426069

>  <Q>
-4.690905368

>  <Activity_Integrase>
Inactive_Integrase

NA
NA
NA
NA
$$$$

  Accelrys05311914352D 1   1.00000     0.00000     0

 47 52  0     0  0            999 V2000
   -2.0458   -1.3750    0.0000 C   0  0  0  0  0  0           0  0  0
   -2.0458   -0.5417    0.0000 C   0  0  0  0  0  0           0  0  0
   -3.4917   -1.3750    0.0000 C   0  0  0  0  0  0           0  0  0
   -2.7667   -1.7917    0.0000 C   0  0  0  0  0  0           0  0  0
   -2.7667   -0.1208    0.0000 C   0  0  0  0  0  0           0  0  0
   -0.6000   -0.5417    0.0000 C   0  0  0  0  0  0           0  0  0
   -3.4917   -0.5417    0.0000 C   0  0  0  0  0  0           0  0  0
    3.7250    1.9625    0.0000 S   0  0  3  0  0  0           0  0  0
    0.1250   -0.1208    0.0000 C   0  0  0  0  0  0           0  0  0
   -0.6000   -1.3750    0.0000 C   0  0  0  0  0  0           0  0  0
    0.8458    1.1333    0.0000 C   0  0  0  0  0  0           0  0  0
   -1.3208   -0.1208    0.0000 C   0  0  0  0  0  0           0  0  0
   -1.3208   -1.7917    0.0000 C   0  0  0  0  0  0           0  0  0
    0.1250    0.7125    0.0000 C   0  0  0  0  0  0           0  0  0
   -4.2167   -1.7875    0.0000 C   0  0  0  0  0  0           0  0  0
    0.8458   -0.5417    0.0000 C   0  0  0  0  0  0           0  0  0
   -4.9375   -1.3750    0.0000 C   0  0  0  0  0  0           0  0  0
    1.5708    0.7125    0.0000 C   0  0  0  0  0  0           0  0  0
   -4.2167   -0.1208    0.0000 C   0  0  0  0  0  0           0  0  0
   -4.9375   -0.5417    0.0000 C   0  0  0  0  0  0           0  0  0
    0.8458    1.9625    0.0000 C   0  0  0  0  0  0           0  0  0
    3.0083    2.3792    0.0000 N   0  0  0  0  0  0           0  0  0
    1.5708   -0.1208    0.0000 C   0  0  0  0  0  0           0  0  0
    0.1250   -1.7917    0.0000 C   0  0  0  0  0  0           0  0  0
    4.4500    1.5458    0.0000 C   0  0  0  0  0  0           0  0  0
    2.2917    1.9625    0.0000 N   0  0  0  0  0  0           0  0  0
    4.3167    2.5500    0.0000 O   0  0  0  0  0  0           0  0  0
    3.1375    1.3792    0.0000 O   0  0  0  0  0  0           0  0  0
   -2.7667   -2.6208    0.0000 O   0  0  0  0  0  0           0  0  0
   -2.7667    0.7083    0.0000 O   0  0  0  0  0  0           0  0  0
    0.8458   -1.3750    0.0000 C   0  0  0  0  0  0           0  0  0
    2.2917    1.1250    0.0000 C   0  0  0  0  0  0           0  0  0
    0.1292    2.3792    0.0000 O   0  0  0  0  0  0           0  0  0
   -1.3208    0.7083    0.0000 O   0  0  0  0  0  0           0  0  0
   -0.5958    1.1250    0.0000 O   0  0  0  0  0  0           0  0  0
   -4.2167   -2.6167    0.0000 O   0  0  0  0  0  0           0  0  0
    4.4500    0.7125    0.0000 C   0  0  0  0  0  0           0  0  0
    5.1708    1.9667    0.0000 C   0  0  0  0  0  0           0  0  0
   -1.3208   -2.6208    0.0000 O   0  0  0  0  0  0           0  0  0
   -5.6583   -0.1250    0.0000 O   0  0  0  0  0  0           0  0  0
    1.5667    2.3792    0.0000 O   0  0  0  0  0  0           0  0  0
    5.1708    0.2958    0.0000 C   0  0  0  0  0  0           0  0  0
    5.8958    1.5500    0.0000 C   0  0  0  0  0  0           0  0  0
    5.8958    0.7167    0.0000 C   0  0  0  0  0  0           0  0  0
   -5.6542   -1.7917    0.0000 C   0  0  0  0  0  0           0  0  0
   -2.0417   -3.0375    0.0000 C   0  0  0  0  0  0           0  0  0
    6.6167    0.3000    0.0000 C   0  0  0  0  0  0           0  0  0
  2  1  2  0     0  0
  3  4  1  0     0  0
  4  1  1  0     0  0
  5  2  1  0     0  0
  6 12  2  0     0  0
  7  5  1  0     0  0
  8 22  1  0     0  0
  9  6  1  0     0  0
 10 13  2  0     0  0
 11 14  2  0     0  0
 12  2  1  0     0  0
 13  1  1  0     0  0
 14  9  1  0     0  0
 15  3  1  0     0  0
 16  9  2  0     0  0
 17 15  2  0     0  0
 18 11  1  0     0  0
 19  7  1  0     0  0
 20 19  2  0     0  0
 21 11  1  0     0  0
 22 26  1  0     0  0
 23 16  1  0     0  0
 24 10  1  0     0  0
 25  8  1  0     0  0
 26 32  2  0     0  0
 27  8  2  0     0  0
 28  8  2  0     0  0
 29  4  2  0     0  0
 30  5  2  0     0  0
 31 24  1  0     0  0
 32 18  1  0     0  0
 33 21  2  0     0  0
 34 12  1  0     0  0
 35 14  1  0     0  0
 36 15  1  0     0  0
 37 25  1  0     0  0
 38 25  2  0     0  0
 39 13  1  0     0  0
 40 20  1  0     0  0
 41 21  1  0     0  0
 42 37  2  0     0  0
 43 38  1  0     0  0
 44 43  2  0     0  0
 45 17  1  0     0  0
 46 39  1  0     0  0
 47 44  1  0     0  0
 10  6  1  0     0  0
  3  7  2  0     0  0
 31 16  1  0     0  0
 17 20  1  0     0  0
 18 23  2  0     0  0
 44 42  1  0     0  0
M  END
>  <prID>
70

>  <IDDB>
25087

>  <pIC50_HIV_Integrase>
4.657577319

>  <Q>
-4.684826342

>  <Activity_Integrase>
Inactive_Integrase

NA
NA
NA
NA
$$$$

  Accelrys05311914352D 1   1.00000     0.00000     0

 36 41  0     0  0            999 V2000
   -0.6583   -1.0292    0.0000 C   0  0  0  0  0  0           0  0  0
   -0.6583   -0.1250    0.0000 C   0  0  0  0  0  0           0  0  0
   -2.2208   -1.0292    0.0000 C   0  0  0  0  0  0           0  0  0
   -1.4417   -1.4792    0.0000 C   0  0  0  0  0  0           0  0  0
   -1.4417    0.3292    0.0000 C   0  0  0  0  0  0           0  0  0
    0.9125   -0.1250    0.0000 C   0  0  0  0  0  0           0  0  0
   -2.2208   -0.1250    0.0000 C   0  0  0  0  0  0           0  0  0
    1.6958    0.3292    0.0000 C   0  0  0  0  0  0           0  0  0
    2.4792    1.6833    0.0000 C   0  0  0  0  0  0           0  0  0
    0.9125   -1.0292    0.0000 C   0  0  0  0  0  0           0  0  0
    0.1292    0.3292    0.0000 C   0  0  0  0  0  0           0  0  0
    0.1292   -1.4792    0.0000 C   0  0  0  0  0  0           0  0  0
    1.6958    1.2333    0.0000 C   0  0  0  0  0  0           0  0  0
   -3.0042   -1.4792    0.0000 C   0  0  0  0  0  0           0  0  0
    2.4792   -0.1250    0.0000 C   0  0  0  0  0  0           0  0  0
    3.2583    1.2333    0.0000 C   0  0  0  0  0  0           0  0  0
   -3.7875   -1.0292    0.0000 C   0  0  0  0  0  0           0  0  0
    2.4792    2.5875    0.0000 C   0  0  0  0  0  0           0  0  0
   -3.0042    0.3333    0.0000 C   0  0  0  0  0  0           0  0  0
    4.0417    2.5875    0.0000 N   0  0  0  0  0  0           0  0  0
   -3.7875   -0.1250    0.0000 C   0  0  0  0  0  0           0  0  0
    3.2583    3.0417    0.0000 N   0  0  0  0  0  0           0  0  0
    3.2583    0.3292    0.0000 C   0  0  0  0  0  0           0  0  0
    1.6958   -1.4792    0.0000 C   0  0  0  0  0  0           0  0  0
   -1.4417   -2.3792    0.0000 O   0  0  0  0  0  0           0  0  0
   -1.4417    1.2292    0.0000 O   0  0  0  0  0  0           0  0  0
    2.4792   -1.0292    0.0000 C   0  0  0  0  0  0           0  0  0
    4.0417    1.6833    0.0000 C   0  0  0  0  0  0           0  0  0
    1.7000    3.0375    0.0000 O   0  0  0  0  0  0           0  0  0
    0.1292    1.2292    0.0000 O   0  0  0  0  0  0           0  0  0
    0.9167    1.6833    0.0000 O   0  0  0  0  0  0           0  0  0
   -3.0042   -2.3792    0.0000 O   0  0  0  0  0  0           0  0  0
    0.1292   -2.3792    0.0000 O   0  0  0  0  0  0           0  0  0
   -4.5667    0.3250    0.0000 O   0  0  0  0  0  0           0  0  0
   -4.5625   -1.4792    0.0000 C   0  0  0  0  0  0           0  0  0
   -0.6500   -2.8292    0.0000 C   0  0  0  0  0  0           0  0  0
  2  1  2  0     0  0
  3  4  1  0     0  0
  4  1  1  0     0  0
  5  2  1  0     0  0
  6 11  2  0     0  0
  7  5  1  0     0  0
  8  6  1  0     0  0
  9 13  2  0     0  0
 10 12  2  0     0  0
 11  2  1  0     0  0
 12  1  1  0     0  0
 13  8  1  0     0  0
 14  3  1  0     0  0
 15  8  2  0     0  0
 16  9  1  0     0  0
 17 14  2  0     0  0
 18  9  1  0     0  0
 19  7  1  0     0  0
 20 28  2  0     0  0
 21 19  2  0     0  0
 22 18  1  0     0  0
 23 15  1  0     0  0
 24 10  1  0     0  0
 25  4  2  0     0  0
 26  5  2  0     0  0
 27 24  1  0     0  0
 28 16  1  0     0  0
 29 18  2  0     0  0
 30 11  1  0     0  0
 31 13  1  0     0  0
 32 14  1  0     0  0
 33 12  1  0     0  0
 34 21  1  0     0  0
 35 17  1  0     0  0
 36 33  1  0     0  0
 10  6  1  0     0  0
  3  7  2  0     0  0
 27 15  1  0     0  0
 17 21  1  0     0  0
 16 23  2  0     0  0
 20 22  1  0     0  0
M  END
>  <prID>
71

>  <IDDB>
25095

>  <pIC50_HIV_Integrase>
5.391473966

>  <Q>
-3.883390273

>  <Activity_Integrase>
Inactive_Integrase

NA
NA
NA
NA
$$$$

  Accelrys05311914352D 1   1.00000     0.00000     0

 45 50  0     0  0            999 V2000
   -1.7917   -0.7583    0.0000 C   0  0  0  0  0  0           0  0  0
   -1.7917    0.1500    0.0000 C   0  0  0  0  0  0           0  0  0
   -3.3625   -0.7583    0.0000 C   0  0  0  0  0  0           0  0  0
   -2.5750   -1.2042    0.0000 C   0  0  0  0  0  0           0  0  0
   -2.5750    0.6000    0.0000 C   0  0  0  0  0  0           0  0  0
   -0.2250    0.1500    0.0000 C   0  0  0  0  0  0           0  0  0
   -3.3625    0.1500    0.0000 C   0  0  0  0  0  0           0  0  0
    0.5583    0.6000    0.0000 C   0  0  0  0  0  0           0  0  0
   -0.2250   -0.7583    0.0000 C   0  0  0  0  0  0           0  0  0
    1.3375    1.9583    0.0000 C   0  0  0  0  0  0           0  0  0
   -1.0083    0.6000    0.0000 C   0  0  0  0  0  0           0  0  0
   -1.0083   -1.2042    0.0000 C   0  0  0  0  0  0           0  0  0
    0.5583    1.5083    0.0000 C   0  0  0  0  0  0           0  0  0
   -4.1417   -1.2042    0.0000 C   0  0  0  0  0  0           0  0  0
    1.3375    0.1500    0.0000 C   0  0  0  0  0  0           0  0  0
   -4.9250   -0.7583    0.0000 C   0  0  0  0  0  0           0  0  0
    2.1250    1.5083    0.0000 C   0  0  0  0  0  0           0  0  0
   -4.1417    0.6083    0.0000 C   0  0  0  0  0  0           0  0  0
   -4.9250    0.1500    0.0000 C   0  0  0  0  0  0           0  0  0
    1.3375    2.8583    0.0000 C   0  0  0  0  0  0           0  0  0
    2.1250    0.6000    0.0000 C   0  0  0  0  0  0           0  0  0
    4.4583    0.1583    0.0000 C   0  0  0  0  0  0           0  0  0
    0.5583   -1.2042    0.0000 C   0  0  0  0  0  0           0  0  0
    3.6792    1.5083    0.0000 N   0  0  0  0  0  0           0  0  0
   -2.5750   -2.1042    0.0000 O   0  0  0  0  0  0           0  0  0
   -2.5750    1.5000    0.0000 O   0  0  0  0  0  0           0  0  0
    1.3375   -0.7583    0.0000 C   0  0  0  0  0  0           0  0  0
    2.9000    1.9583    0.0000 C   0  0  0  0  0  0           0  0  0
    3.6792    0.6083    0.0000 N   0  0  0  0  0  0           0  0  0
    0.5583    3.3083    0.0000 O   0  0  0  0  0  0           0  0  0
    5.2375    0.6125    0.0000 O   0  0  0  0  0  0           0  0  0
    4.4583   -0.7417    0.0000 C   0  0  0  0  0  0           0  0  0
   -1.0083    1.5000    0.0000 O   0  0  0  0  0  0           0  0  0
   -0.2208    1.9583    0.0000 O   0  0  0  0  0  0           0  0  0
   -4.1417   -2.1042    0.0000 O   0  0  0  0  0  0           0  0  0
   -1.0083   -2.1042    0.0000 O   0  0  0  0  0  0           0  0  0
   -5.7042    0.6000    0.0000 O   0  0  0  0  0  0           0  0  0
    2.1167    3.3083    0.0000 O   0  0  0  0  0  0           0  0  0
   -5.7042   -1.2042    0.0000 C   0  0  0  0  0  0           0  0  0
    3.6792   -1.1917    0.0000 C   0  0  0  0  0  0           0  0  0
    5.2375   -1.1875    0.0000 C   0  0  0  0  0  0           0  0  0
   -1.7875   -2.5583    0.0000 C   0  0  0  0  0  0           0  0  0
    3.6875   -2.0917    0.0000 C   0  0  0  0  0  0           0  0  0
    5.2458   -2.0875    0.0000 C   0  0  0  0  0  0           0  0  0
    4.4667   -2.5417    0.0000 C   0  0  0  0  0  0           0  0  0
  2  1  2  0     0  0
  3  4  1  0     0  0
  4  1  1  0     0  0
  5  2  1  0     0  0
  6 11  2  0     0  0
  7  5  1  0     0  0
  8  6  1  0     0  0
  9 12  2  0     0  0
 10 13  2  0     0  0
 11  2  1  0     0  0
 12  1  1  0     0  0
 13  8  1  0     0  0
 14  3  1  0     0  0
 15  8  2  0     0  0
 16 14  2  0     0  0
 17 10  1  0     0  0
 18  7  1  0     0  0
 19 18  2  0     0  0
 20 10  1  0     0  0
 21 15  1  0     0  0
 22 29  1  0     0  0
 23  9  1  0     0  0
 24 28  2  0     0  0
 25  4  2  0     0  0
 26  5  2  0     0  0
 27 23  1  0     0  0
 28 17  1  0     0  0
 29 24  1  0     0  0
 30 20  2  0     0  0
 31 22  2  0     0  0
 32 22  1  0     0  0
 33 11  1  0     0  0
 34 13  1  0     0  0
 35 14  1  0     0  0
 36 12  1  0     0  0
 37 19  1  0     0  0
 38 20  1  0     0  0
 39 16  1  0     0  0
 40 32  1  0     0  0
 41 32  2  0     0  0
 42 36  1  0     0  0
 43 40  2  0     0  0
 44 41  1  0     0  0
 45 44  2  0     0  0
  9  6  1  0     0  0
  3  7  2  0     0  0
 27 15  1  0     0  0
 16 19  1  0     0  0
 17 21  2  0     0  0
 45 43  1  0     0  0
M  END
>  <prID>
72

>  <IDDB>
25109

>  <pIC50_HIV_Integrase>
4.835647144

>  <Q>
-3.948177608

>  <Activity_Integrase>
Inactive_Integrase

NA
NA
NA
NA
$$$$

  Accelrys05311914352D 1   1.00000     0.00000     0

 52 57  0     0  0            999 V2000
    3.4333    0.8875    0.0000 C   0  0  0  0  0  0           0  0  0
    1.9500   -1.5042    0.0000 C   0  0  0  0  0  0           0  0  0
   -1.7417    0.5417    0.0000 C   0  0  1  0  0  0           0  0  0
   -1.7417   -0.2292    0.0000 C   0  0  2  0  0  0           0  0  0
   -3.1208   -0.2292    0.0000 C   0  0  1  0  0  0           0  0  0
   -2.4292   -0.6375    0.0000 C   0  0  1  0  0  0           0  0  0
   -3.7958   -0.6375    0.0000 C   0  0  1  0  0  0           0  0  0
    2.1000    0.8875    0.0000 C   0  0  0  0  0  0           0  0  0
    1.3083   -0.3583    0.0000 C   0  0  0  0  0  0           0  0  0
    1.3083    0.4792    0.0000 C   0  0  0  0  0  0           0  0  0
    2.7625    0.5292    0.0000 C   0  0  0  0  0  0           0  0  0
    1.9500   -0.7458    0.0000 C   0  0  0  0  0  0           0  0  0
    3.4333    1.7042    0.0000 C   0  0  0  0  0  0           0  0  0
    1.3083   -1.9000    0.0000 C   0  0  0  0  0  0           0  0  0
   -0.9250    0.8250    0.0000 C   0  0  2  0  0  0           0  0  0
    4.2000    0.5292    0.0000 C   0  0  0  0  0  0           0  0  0
    2.7167   -1.8417    0.0000 C   0  0  0  0  0  0           0  0  0
    2.7625    2.0917    0.0000 C   0  0  0  0  0  0           0  0  0
    0.6417   -1.5042    0.0000 C   0  0  0  0  0  0           0  0  0
   -2.4292    0.9250    0.0000 C   0  0  0  0  0  0           0  0  0
    2.1000    1.7042    0.0000 C   0  0  0  0  0  0           0  0  0
    0.6417   -0.7458    0.0000 C   0  0  0  0  0  0           0  0  0
   -3.1208    0.5417    0.0000 C   0  0  0  0  0  0           0  0  0
   -0.8042   -0.5375    0.0000 C   0  0  0  0  0  0           0  0  0
   -0.3542    0.2083    0.0000 C   0  0  0  0  0  0           0  0  0
   -2.4292   -1.4083    0.0000 C   0  0  0  0  0  0           0  0  0
   -3.7958   -1.4083    0.0000 C   0  0  2  0  0  0           0  0  0
    0.5667    0.9375    0.0000 C   0  0  0  0  0  0           0  0  0
    4.9583    0.9375    0.0000 O   0  0  0  0  0  0           0  0  0
    2.7167   -2.6875    0.0000 O   0  0  0  0  0  0           0  0  0
   -3.1208   -1.7833    0.0000 C   0  0  0  0  0  0           0  0  0
   -0.9000    1.7792    0.0000 C   0  0  1  0  0  0           0  0  0
    2.7625    2.8750    0.0000 Cl  0  0  0  0  0  0           0  0  0
   -0.1792   -1.9833    0.0000 Cl  0  0  0  0  0  0           0  0  0
    1.3083   -2.6458    0.0000 O   0  0  0  0  0  0           0  0  0
    4.2375    2.1375    0.0000 O   0  0  0  0  0  0           0  0  0
    3.4333   -1.4208    0.0000 O   0  0  0  0  0  0           0  0  0
    4.2000   -0.2917    0.0000 O   0  0  0  0  0  0           0  0  0
   -1.7458    1.3667    0.0000 C   0  0  0  0  0  0           0  0  0
   -3.7958    0.7208    0.0000 C   0  0  0  0  0  0           0  0  0
   -4.4625   -0.2292    0.0000 C   0  0  0  0  0  0           0  0  0
    0.5667    1.7417    0.0000 C   0  0  0  0  0  0           0  0  0
   -0.1458    2.1833    0.0000 C   0  0  0  0  0  0           0  0  0
   -4.4625   -1.7833    0.0000 C   0  0  0  0  0  0           0  0  0
   -1.6208    2.1917    0.0000 C   0  0  0  0  0  0           0  0  0
   -5.1458   -0.6375    0.0000 C   0  0  0  0  0  0           0  0  0
   -5.1458   -1.4083    0.0000 C   0  0  0  0  0  0           0  0  0
   -2.4375    0.1875    0.0000 H   0  0  0  0  0  0           0  0  0
   -1.7458   -1.0542    0.0000 H   0  0  0  0  0  0           0  0  0
   -3.1250   -1.0542    0.0000 H   0  0  0  0  0  0           0  0  0
   -0.2167    1.2417    0.0000 H   0  0  0  0  0  0           0  0  0
   -3.8000   -2.3792    0.0000 H   0  0  0  0  0  0           0  0  0
  2 12  2  0     0  0
  3 15  1  0     0  0
  4  3  1  0     0  0
  5 23  1  0     0  0
  6  4  1  0     0  0
  7  5  1  0     0  0
  8 11  2  0     0  0
  9 10  1  0     0  0
 10  8  1  0     0  0
 11  1  1  0     0  0
 12  9  1  0     0  0
 13  1  2  0     0  0
 14 19  2  0     0  0
 15 32  1  0     0  0
 16  1  1  0     0  0
 17  2  1  0     0  0
 18 13  1  0     0  0
 19 22  1  0     0  0
 20  3  1  0     0  0
 21 18  2  0     0  0
 22  9  2  0     0  0
 23 20  1  0     0  0
 24 25  1  0     0  0
 25 15  1  0     0  0
 26  6  1  0     0  0
 27  7  1  0     0  0
 28 10  2  0     0  0
 29 16  2  0     0  0
 30 17  2  0     0  0
 31 26  1  0     0  0
 32 43  1  0     0  0
 33 18  1  0     0  0
 34 19  1  0     0  0
 35 14  1  0     0  0
 36 13  1  0     0  0
 37 17  1  0     0  0
 38 16  1  0     0  0
  3 39  1  1     0  0
  7 40  1  1     0  0
 41  7  1  0     0  0
 42 28  1  0     0  0
 43 42  1  0     0  0
 44 27  1  0     0  0
 32 45  1  6     0  0
 46 41  1  0     0  0
 47 46  1  0     0  0
  6 48  1  1     0  0
  4 49  1  6     0  0
  5 50  1  6     0  0
 15 51  1  6     0  0
 27 52  1  1     0  0
 21  8  1  0     0  0
 14  2  1  0     0  0
 24  4  1  0     0  0
  5  6  1  0     0  0
 27 31  1  0     0  0
 47 44  1  0     0  0
M  END
>  <prID>
73

>  <IDDB>
25250

>  <pIC50_HIV_Integrase>
5.657577319

>  <Q>
-8.868608983

>  <Activity_Integrase>
Inactive_Integrase

NA
NA
NA
NA
$$$$

  Accelrys05311914352D 1   1.00000     0.00000     0

 54 59  0     0  0            999 V2000
    3.6583    0.9708    0.0000 C   0  0  0  0  0  0           0  0  0
    2.1792   -1.4333    0.0000 C   0  0  0  0  0  0           0  0  0
   -1.5125    0.6208    0.0000 C   0  0  1  0  0  0           0  0  0
   -3.5625   -0.5583    0.0000 C   0  0  2  0  0  0           0  0  0
   -1.5125   -0.1542    0.0000 C   0  0  2  0  0  0           0  0  0
   -2.8833   -0.1542    0.0000 C   0  0  2  0  0  0           0  0  0
   -2.2000   -0.5583    0.0000 C   0  0  1  0  0  0           0  0  0
    2.3292    0.9708    0.0000 C   0  0  0  0  0  0           0  0  0
    1.5333   -0.2833    0.0000 C   0  0  0  0  0  0           0  0  0
    1.5333    0.5625    0.0000 C   0  0  0  0  0  0           0  0  0
    2.9875    0.6083    0.0000 C   0  0  0  0  0  0           0  0  0
    2.1792   -0.6625    0.0000 C   0  0  0  0  0  0           0  0  0
    3.6583    1.7875    0.0000 C   0  0  0  0  0  0           0  0  0
    1.5333   -1.8167    0.0000 C   0  0  0  0  0  0           0  0  0
   -0.7000    0.9042    0.0000 C   0  0  2  0  0  0           0  0  0
    4.4292    0.6083    0.0000 C   0  0  0  0  0  0           0  0  0
    2.9417   -1.7708    0.0000 C   0  0  0  0  0  0           0  0  0
   -3.5625   -1.3333    0.0000 C   0  0  1  0  0  0           0  0  0
    2.9875    2.1708    0.0000 C   0  0  0  0  0  0           0  0  0
    0.8792   -1.4333    0.0000 C   0  0  0  0  0  0           0  0  0
   -2.2000    1.0042    0.0000 C   0  0  0  0  0  0           0  0  0
   -4.9208   -1.3333    0.0000 C   0  0  3  0  0  0           0  0  0
    2.3292    1.7875    0.0000 C   0  0  0  0  0  0           0  0  0
    0.8792   -0.6625    0.0000 C   0  0  0  0  0  0           0  0  0
   -2.8833    0.6208    0.0000 C   0  0  0  0  0  0           0  0  0
   -0.5833   -0.4542    0.0000 C   0  0  0  0  0  0           0  0  0
   -4.2417   -0.1542    0.0000 C   0  0  0  0  0  0           0  0  0
   -0.1292    0.2875    0.0000 C   0  0  0  0  0  0           0  0  0
   -2.2000   -1.3333    0.0000 C   0  0  0  0  0  0           0  0  0
   -4.2417   -1.7000    0.0000 C   0  0  0  0  0  0           0  0  0
   -2.8833   -1.7000    0.0000 C   0  0  0  0  0  0           0  0  0
    0.7958    1.0208    0.0000 C   0  0  0  0  0  0           0  0  0
    5.1875    1.0208    0.0000 O   0  0  0  0  0  0           0  0  0
    2.9417   -2.6083    0.0000 O   0  0  0  0  0  0           0  0  0
   -4.9208   -0.5583    0.0000 C   0  0  0  0  0  0           0  0  0
   -0.6750    1.8625    0.0000 C   0  0  1  0  0  0           0  0  0
    2.9875    2.9583    0.0000 Cl  0  0  0  0  0  0           0  0  0
    0.0542   -1.9000    0.0000 Cl  0  0  0  0  0  0           0  0  0
   -5.0833   -2.2208    0.0000 F   0  0  0  0  0  0           0  0  0
   -5.7042   -1.5917    0.0000 F   0  0  0  0  0  0           0  0  0
    1.5333   -2.5667    0.0000 O   0  0  0  0  0  0           0  0  0
    4.4667    2.2167    0.0000 O   0  0  0  0  0  0           0  0  0
    3.6583   -1.3458    0.0000 O   0  0  0  0  0  0           0  0  0
    4.4292   -0.2125    0.0000 O   0  0  0  0  0  0           0  0  0
   -1.5208    1.4542    0.0000 C   0  0  0  0  0  0           0  0  0
   -3.5625    0.8000    0.0000 C   0  0  0  0  0  0           0  0  0
    0.7958    1.8250    0.0000 C   0  0  0  0  0  0           0  0  0
    0.0833    2.2625    0.0000 C   0  0  0  0  0  0           0  0  0
   -1.3917    2.2750    0.0000 C   0  0  0  0  0  0           0  0  0
   -1.5208   -0.9792    0.0000 H   0  0  0  0  0  0           0  0  0
   -2.2125    0.2667    0.0000 H   0  0  0  0  0  0           0  0  0
   -2.8917   -0.9792    0.0000 H   0  0  0  0  0  0           0  0  0
    0.0083    1.3208    0.0000 H   0  0  0  0  0  0           0  0  0
   -3.5708   -2.2958    0.0000 H   0  0  0  0  0  0           0  0  0
  2 12  2  0     0  0
  3 15  1  0     0  0
  4  6  1  0     0  0
  5  3  1  0     0  0
  6 25  1  0     0  0
  7  5  1  0     0  0
  8 11  2  0     0  0
  9 10  1  0     0  0
 10  8  1  0     0  0
 11  1  1  0     0  0
 12  9  1  0     0  0
 13  1  2  0     0  0
 14 20  2  0     0  0
 15 36  1  0     0  0
 16  1  1  0     0  0
 17  2  1  0     0  0
 18  4  1  0     0  0
 19 13  1  0     0  0
 20 24  1  0     0  0
 21  3  1  0     0  0
 22 35  1  0     0  0
 23 19  2  0     0  0
 24  9  2  0     0  0
 25 21  1  0     0  0
 26 28  1  0     0  0
 27  4  1  0     0  0
 28 15  1  0     0  0
 29  7  1  0     0  0
 30 18  1  0     0  0
 31 29  1  0     0  0
 32 10  2  0     0  0
 33 16  2  0     0  0
 34 17  2  0     0  0
 35 27  1  0     0  0
 36 48  1  0     0  0
 37 19  1  0     0  0
 38 20  1  0     0  0
 39 22  1  0     0  0
 40 22  1  0     0  0
 41 14  1  0     0  0
 42 13  1  0     0  0
 43 17  1  0     0  0
 44 16  1  0     0  0
  3 45  1  1     0  0
  4 46  1  1     0  0
 47 32  1  0     0  0
 48 47  1  0     0  0
 36 49  1  6     0  0
  5 50  1  6     0  0
  7 51  1  1     0  0
  6 52  1  6     0  0
 15 53  1  6     0  0
 18 54  1  1     0  0
 23  8  1  0     0  0
 14  2  1  0     0  0
 26  5  1  0     0  0
  6  7  1  0     0  0
 18 31  1  0     0  0
 22 30  1  0     0  0
M  END
>  <prID>
74

>  <IDDB>
25251

>  <pIC50_HIV_Integrase>
5.657577319

>  <Q>
-14.47144581

>  <Activity_Integrase>
Inactive_Integrase

NA
NA
NA
NA
$$$$

  Accelrys05311914352D 1   1.00000     0.00000     0

 35 39  0     0  0            999 V2000
   -1.5917    1.7583    0.0000 C   0  0  0  0  0  0           0  0  0
    1.2792    1.7417    0.0000 C   0  0  0  0  0  0           0  0  0
   -0.1583    0.0958    0.0000 C   0  0  0  0  0  0           0  0  0
   -0.8792    0.5125    0.0000 C   0  0  0  0  0  0           0  0  0
    0.5625    0.5042    0.0000 C   0  0  0  0  0  0           0  0  0
   -0.8792    1.3458    0.0000 C   0  0  0  0  0  0           0  0  0
    0.5667    1.3333    0.0000 C   0  0  0  0  0  0           0  0  0
   -2.3083    1.3417    0.0000 C   0  0  0  0  0  0           0  0  0
    2.0042    1.3292    0.0000 C   0  0  0  0  0  0           0  0  0
    0.5375   -2.0208    0.0000 C   0  0  3  0  0  0           0  0  0
   -1.5958    2.5792    0.0000 C   0  0  0  0  0  0           0  0  0
    1.2750    2.5667    0.0000 C   0  0  0  0  0  0           0  0  0
   -0.1625   -0.7292    0.0000 C   0  0  0  0  0  0           0  0  0
   -2.3042    0.5167    0.0000 C   0  0  0  0  0  0           0  0  0
    2.0000    0.5000    0.0000 C   0  0  0  0  0  0           0  0  0
   -1.5958    0.1000    0.0000 C   0  0  0  0  0  0           0  0  0
    1.2792    0.0875    0.0000 C   0  0  0  0  0  0           0  0  0
   -0.0167   -3.5333    0.0000 C   0  0  3  0  0  0           0  0  0
    1.2792   -3.1458    0.0000 C   0  0  3  0  0  0           0  0  0
   -0.1792   -3.0750    0.0000 C   0  0  3  0  0  0           0  0  0
    0.5500   -1.1417    0.0000 C   0  0  0  0  0  0           0  0  0
    1.2833   -2.3333    0.0000 C   0  0  0  0  0  0           0  0  0
   -0.1833   -2.2750    0.0000 C   0  0  0  0  0  0           0  0  0
   -0.0208   -2.6792    0.0000 C   0  0  0  0  0  0           0  0  0
   -2.3083    2.9917    0.0000 O   0  0  0  0  0  0           0  0  0
    0.5583    2.9792    0.0000 O   0  0  0  0  0  0           0  0  0
    0.7375   -3.8333    0.0000 C   0  0  0  0  0  0           0  0  0
   -0.8208   -3.7583    0.0000 C   0  0  0  0  0  0           0  0  0
    0.5292   -3.3333    0.0000 C   0  0  0  0  0  0           0  0  0
   -3.0292    0.0917    0.0000 Cl  0  0  0  0  0  0           0  0  0
    2.7083    0.0750    0.0000 Cl  0  0  0  0  0  0           0  0  0
    2.7375    1.7375    0.0000 O   0  0  0  0  0  0           0  0  0
   -3.0333    1.7625    0.0000 O   0  0  0  0  0  0           0  0  0
    1.9875    2.9833    0.0000 O   0  0  0  0  0  0           0  0  0
   -0.8792    2.9958    0.0000 O   0  0  0  0  0  0           0  0  0
  2  7  2  0     0  0
  3  4  1  0     0  0
  4  6  2  0     0  0
  5  3  1  0     0  0
  6  1  1  0     0  0
  7  5  1  0     0  0
  8  1  2  0     0  0
  9 15  2  0     0  0
 10 21  1  0     0  0
 11  1  1  0     0  0
 12  2  1  0     0  0
 13  3  2  0     0  0
 14  8  1  0     0  0
 15 17  1  0     0  0
 16 14  2  0     0  0
 17  5  2  0     0  0
 18 24  1  0     0  0
 19 22  1  0     0  0
 20 23  1  0     0  0
 21 13  1  0     0  0
 22 10  1  0     0  0
 23 10  1  0     0  0
 24 10  1  0     0  0
 25 11  2  0     0  0
 26 12  2  0     0  0
 27 19  1  0     0  0
 28 18  1  0     0  0
 29 19  1  0     0  0
 30 14  1  0     0  0
 31 15  1  0     0  0
 32  9  1  0     0  0
 33  8  1  0     0  0
 34 12  1  0     0  0
 35 11  1  0     0  0
 16  4  1  0     0  0
  9  2  1  0     0  0
 27 18  1  0     0  0
 29 20  1  0     0  0
 28 20  1  0     0  0
M  END
>  <prID>
75

>  <IDDB>
25252

>  <pIC50_HIV_Integrase>
5.15490196

>  <Q>
-6.224546767

>  <Activity_Integrase>
Inactive_Integrase

NA
NA
NA
NA
$$$$

  Accelrys05311914352D 1   1.00000     0.00000     0

 31 32  0     0  0            999 V2000
   -1.7583    0.7042    0.0000 C   0  0  0  0  0  0           0  0  0
    1.1250    0.7042    0.0000 C   0  0  0  0  0  0           0  0  0
   -1.0375   -0.5167    0.0000 C   0  0  0  0  0  0           0  0  0
    0.4042   -0.5167    0.0000 C   0  0  0  0  0  0           0  0  0
   -0.3250   -0.9583    0.0000 C   0  0  0  0  0  0           0  0  0
    0.4042    0.3042    0.0000 C   0  0  0  0  0  0           0  0  0
   -1.0375    0.2833    0.0000 C   0  0  0  0  0  0           0  0  0
   -2.4583    0.2833    0.0000 C   0  0  0  0  0  0           0  0  0
    1.8042    0.3125    0.0000 C   0  0  0  0  0  0           0  0  0
   -1.7583    1.2917    0.0000 C   0  0  0  0  0  0           0  0  0
    1.1333    1.4042    0.0000 C   0  0  0  0  0  0           0  0  0
   -2.4583   -0.5167    0.0000 C   0  0  0  0  0  0           0  0  0
    1.8042   -0.5167    0.0000 C   0  0  0  0  0  0           0  0  0
   -1.7583   -0.9375    0.0000 C   0  0  0  0  0  0           0  0  0
    1.1250   -0.9167    0.0000 C   0  0  0  0  0  0           0  0  0
   -0.3250   -1.7958    0.0000 C   0  0  0  0  0  0           0  0  0
   -1.0875    1.6833    0.0000 O   0  0  0  0  0  0           0  0  0
    0.3625    1.7750    0.0000 O   0  0  0  0  0  0           0  0  0
    1.7750    1.8333    0.0000 N   0  0  0  0  0  0           0  0  0
   -2.5167    1.5625    0.0000 N   0  0  0  0  0  0           0  0  0
   -3.1375   -0.8958    0.0000 Cl  0  0  0  0  0  0           0  0  0
    2.4750   -0.9375    0.0000 Cl  0  0  0  0  0  0           0  0  0
   -3.2083    0.6042    0.0000 O   0  0  0  0  0  0           0  0  0
    2.6042    0.6833    0.0000 O   0  0  0  0  0  0           0  0  0
   -2.5167    2.4750    0.0000 O   0  0  0  0  0  0           0  0  0
    1.7750    2.7333    0.0000 O   0  0  0  0  0  0           0  0  0
    0.3250   -2.1250    0.0000 C   0  0  0  0  0  0           0  0  0
    1.0417   -1.7750    0.0000 C   0  0  0  0  0  0           0  0  0
    2.4167   -1.7583    0.0000 C   0  0  0  0  0  0           0  0  0
    1.6625   -2.1875    0.0000 C   0  0  0  0  0  0           0  0  0
    3.0917   -2.2250    0.0000 C   0  0  0  0  0  0           0  0  0
  2  6  2  0     0  0
  3  7  1  0     0  0
  4  5  1  0     0  0
  5  3  1  0     0  0
  6  4  1  0     0  0
  7  1  2  0     0  0
  8  1  1  0     0  0
  9 13  2  0     0  0
 10  1  1  0     0  0
 11  2  1  0     0  0
 12  8  2  0     0  0
 13 15  1  0     0  0
 14 12  1  0     0  0
 15  4  2  0     0  0
 16  5  2  0     0  0
 17 10  2  0     0  0
 18 11  2  0     0  0
 19 11  1  0     0  0
 20 10  1  0     0  0
 21 12  1  0     0  0
 22 13  1  0     0  0
 23  8  1  0     0  0
 24  9  1  0     0  0
 25 20  1  0     0  0
 26 19  1  0     0  0
 27 16  1  0     0  0
 28 27  1  0     0  0
 29 30  1  0     0  0
 30 28  1  0     0  0
 31 29  1  0     0  0
 14  3  2  0     0  0
  9  2  1  0     0  0
M  END
>  <prID>
76

>  <IDDB>
25253

>  <pIC50_HIV_Integrase>
5.397940009

>  <Q>
-5.699768198

>  <Activity_Integrase>
Inactive_Integrase

NA
NA
NA
NA
$$$$

  Accelrys05311914352D 1   1.00000     0.00000     0

 26 27  0     0  0            999 V2000
    1.1573    1.8373    0.0000 C   0  0  0  0  0  0           0  0  0
    1.1573    0.6562    0.0000 C   0  0  2  0  0  0           0  0  0
   -1.1454    0.6025    0.0000 C   0  0  0  0  0  0           0  0  0
   -0.1193    0.0119    0.0000 O   0  0  0  0  0  0           0  0  0
   -2.1655    0.0060    0.0000 C   0  0  0  0  0  0           0  0  0
    5.2079    0.7159    0.0000 C   0  0  0  0  0  0           0  0  0
   -5.2436   -1.7717    0.0000 C   0  0  0  0  0  0           0  0  0
   -2.1655   -1.1751    0.0000 C   0  0  0  0  0  0           0  0  0
    2.1715    0.0597    0.0000 C   0  0  0  0  0  0           0  0  0
    5.2079    1.8910    0.0000 C   0  0  0  0  0  0           0  0  0
   -5.2436   -2.9529    0.0000 C   0  0  0  0  0  0           0  0  0
    4.2117    0.1134    0.0000 C   0  0  0  0  0  0           0  0  0
    3.1856    0.6801    0.0000 C   0  0  0  0  0  0           0  0  0
   -4.2175   -1.1812    0.0000 C   0  0  0  0  0  0           0  0  0
    2.2013    2.4100    0.0000 O   0  0  0  0  0  0           0  0  0
   -1.1454    1.7896    0.0000 O   0  0  0  0  0  0           0  0  0
   -3.1974   -1.7717    0.0000 C   0  0  0  0  0  0           0  0  0
    4.1759    2.4637    0.0000 C   0  0  0  0  0  0           0  0  0
   -4.2117   -3.5495    0.0000 C   0  0  0  0  0  0           0  0  0
    0.1611    2.4279    0.0000 O   0  0  0  0  0  0           0  0  0
    3.1856    1.8552    0.0000 C   0  0  0  0  0  0           0  0  0
    6.2637    0.1432    0.0000 O   0  0  0  0  0  0           0  0  0
   -6.2756   -1.1812    0.0000 O   0  0  0  0  0  0           0  0  0
   -3.1974   -2.9529    0.0000 C   0  0  0  0  0  0           0  0  0
    6.2279    2.5055    0.0000 O   0  0  0  0  0  0           0  0  0
   -6.2756   -3.5554    0.0000 O   0  0  0  0  0  0           0  0  0
  2  1  1  1     0  0
  3  4  1  0     0  0
  4  2  1  0     0  0
  5  3  1  0     0  0
  6 12  1  0     0  0
  7 14  1  0     0  0
  8  5  2  0     0  0
  9  2  1  0     0  0
 10 18  1  0     0  0
 11 19  1  0     0  0
 12 13  2  0     0  0
 13  9  1  0     0  0
 14 17  2  0     0  0
 15  1  2  0     0  0
 16  3  2  0     0  0
 17  8  1  0     0  0
 18 21  2  0     0  0
 19 24  2  0     0  0
 20  1  1  0     0  0
 21 13  1  0     0  0
 22  6  1  0     0  0
 23  7  1  0     0  0
 24 17  1  0     0  0
 25 10  1  0     0  0
 26 11  1  0     0  0
 10  6  2  0     0  0
 11  7  2  0     0  0
M  END
>  <prID>
77

>  <IDDB>
26336

>  <pIC50_HIV_Integrase>
5.397940009

>  <Q>
-3.367248623

>  <Activity_Integrase>
Inactive_Integrase

NA
NA
NA
NA
$$$$

  Accelrys05311914352D 1   1.00000     0.00000     0

 13 13  0     0  0            999 V2000
    3.0061    0.7317    0.0000 C   0  0  0  0  0  0           0  0  0
    1.9710    0.1384    0.0000 C   0  0  0  0  0  0           0  0  0
   -2.1425    0.1384    0.0000 C   0  0  0  0  0  0           0  0  0
    0.9493    0.7317    0.0000 C   0  0  0  0  0  0           0  0  0
   -2.1425   -1.0482    0.0000 C   0  0  0  0  0  0           0  0  0
   -1.1075    0.7449    0.0000 C   0  0  0  0  0  0           0  0  0
    3.0061    1.9250    0.0000 O   0  0  0  0  0  0           0  0  0
   -0.0858    0.1384    0.0000 C   0  0  0  0  0  0           0  0  0
   -1.1075   -1.6415    0.0000 C   0  0  0  0  0  0           0  0  0
   -3.1643    0.7317    0.0000 O   0  0  0  0  0  0           0  0  0
    4.0345    0.1384    0.0000 O   0  0  0  0  0  0           0  0  0
   -0.0858   -1.0482    0.0000 C   0  0  0  0  0  0           0  0  0
   -3.1643   -1.6415    0.0000 O   0  0  0  0  0  0           0  0  0
  2  1  1  0     0  0
  3  6  2  0     0  0
  4  2  2  0     0  0
  5  9  2  0     0  0
  6  8  1  0     0  0
  7  1  2  0     0  0
  8  4  1  0     0  0
  9 12  1  0     0  0
 10  3  1  0     0  0
 11  1  1  0     0  0
 12  8  2  0     0  0
 13  5  1  0     0  0
  5  3  1  0     0  0
M  END
>  <prID>
78

>  <IDDB>
26339

>  <pIC50_HIV_Integrase>
4.619788758

>  <Q>
-1.456443376

>  <Activity_Integrase>
Inactive_Integrase

NA
NA
NA
NA
$$$$

  Accelrys05311914352D 1   1.00000     0.00000     0

 37 39  0     0  0            999 V2000
    0.4000    1.5667    0.0000 C   0  0  2  0  0  0           0  0  0
    0.4167   -0.2167    0.0000 C   0  0  2  0  0  0           0  0  0
   -0.3583    0.2250    0.0000 C   0  0  1  0  0  0           0  0  0
   -0.3667    1.1167    0.0000 C   0  0  0  0  0  0           0  0  0
    1.1708    1.1333    0.0000 C   0  0  0  0  0  0           0  0  0
    1.1792    0.2417    0.0000 C   0  0  1  0  0  0           0  0  0
    1.3792    2.0833    0.0000 C   0  0  0  0  0  0           0  0  0
    0.4083   -1.1000    0.0000 O   0  0  0  0  0  0           0  0  0
   -1.1333   -0.2167    0.0000 O   0  0  0  0  0  0           0  0  0
    1.1875   -1.7000    0.0000 C   0  0  0  0  0  0           0  0  0
   -1.9458   -0.6917    0.0000 C   0  0  0  0  0  0           0  0  0
    1.9042   -1.2958    0.0000 C   0  0  0  0  0  0           0  0  0
   -2.6625   -0.2792    0.0000 C   0  0  0  0  0  0           0  0  0
    4.0583   -0.0708    0.0000 C   0  0  0  0  0  0           0  0  0
   -4.8000    0.9417    0.0000 C   0  0  0  0  0  0           0  0  0
    2.6167   -1.7083    0.0000 C   0  0  0  0  0  0           0  0  0
   -3.3708   -0.7000    0.0000 C   0  0  0  0  0  0           0  0  0
    4.7708   -0.4958    0.0000 C   0  0  0  0  0  0           0  0  0
   -5.5125    0.5250    0.0000 C   0  0  0  0  0  0           0  0  0
    3.3458   -0.4792    0.0000 C   0  0  0  0  0  0           0  0  0
   -4.0875    0.5292    0.0000 C   0  0  0  0  0  0           0  0  0
    1.3792    2.9083    0.0000 O   0  0  0  0  0  0           0  0  0
   -1.9333   -1.5083    0.0000 O   0  0  0  0  0  0           0  0  0
    1.1792   -2.5292    0.0000 O   0  0  0  0  0  0           0  0  0
    3.3375   -1.3000    0.0000 C   0  0  0  0  0  0           0  0  0
   -4.0833   -0.2958    0.0000 C   0  0  0  0  0  0           0  0  0
    4.7583   -1.3167    0.0000 C   0  0  0  0  0  0           0  0  0
   -5.5083   -0.3000    0.0000 C   0  0  0  0  0  0           0  0  0
    0.3792    2.5833    0.0000 O   0  0  0  0  0  0           0  0  0
    2.0958    1.6708    0.0000 O   0  0  0  0  0  0           0  0  0
    1.9583   -0.1917    0.0000 O   0  0  0  0  0  0           0  0  0
    4.0542    0.7542    0.0000 O   0  0  0  0  0  0           0  0  0
   -4.8042    1.7625    0.0000 O   0  0  0  0  0  0           0  0  0
    4.0417   -1.7167    0.0000 C   0  0  0  0  0  0           0  0  0
   -4.7958   -0.7125    0.0000 C   0  0  0  0  0  0           0  0  0
    5.4792   -0.0792    0.0000 O   0  0  0  0  0  0           0  0  0
   -6.2208    0.9375    0.0000 O   0  0  0  0  0  0           0  0  0
  2  6  1  0     0  0
  3  4  1  0     0  0
  4  1  1  0     0  0
  5  1  1  0     0  0
  6  5  1  0     0  0
  1  7  1  1     0  0
  2  8  1  6     0  0
  3  9  1  6     0  0
 10  8  1  0     0  0
 11  9  1  0     0  0
 12 10  1  0     0  0
 13 11  1  0     0  0
 14 20  2  0     0  0
 15 21  2  0     0  0
 16 12  2  0     0  0
 17 13  2  0     0  0
 18 27  2  0     0  0
 19 28  2  0     0  0
 20 25  1  0     0  0
 21 26  1  0     0  0
 22  7  2  0     0  0
 23 11  2  0     0  0
 24 10  2  0     0  0
 25 16  1  0     0  0
 26 17  1  0     0  0
 27 34  1  0     0  0
 28 35  1  0     0  0
  1 29  1  6     0  0
 30  7  1  0     0  0
  6 31  1  1     0  0
 32 14  1  0     0  0
 33 15  1  0     0  0
 34 25  2  0     0  0
 35 26  2  0     0  0
 36 18  1  0     0  0
 37 19  1  0     0  0
  3  2  1  0     0  0
 19 15  1  0     0  0
 18 14  1  0     0  0
M  END
>  <prID>
79

>  <IDDB>
28061

>  <pIC50_HIV_Integrase>
4.392544977

>  <Q>
-5.936846703

>  <Activity_Integrase>
Inactive_Integrase

NA
NA
NA
NA
$$$$

  Accelrys05311914352D 1   1.00000     0.00000     0

 37 39  0     0  0            999 V2000
   11.6027   -1.7421    0.0000 C   0  0  0  0  0  0           0  0  0
   11.6011   -2.5695    0.0000 C   0  0  0  0  0  0           0  0  0
   10.8848   -2.9799    0.0000 C   0  0  0  0  0  0           0  0  0
   10.1698   -2.5641    0.0000 C   0  0  0  0  0  0           0  0  0
   10.1755   -1.7336    0.0000 C   0  0  0  0  0  0           0  0  0
   10.8923   -1.3269    0.0000 C   0  0  0  0  0  0           0  0  0
   10.8901   -3.8022    0.0000 O   0  0  0  0  0  0           0  0  0
   12.3179   -2.9779    0.0000 O   0  0  0  0  0  0           0  0  0
    9.4663   -1.3145    0.0000 C   0  0  0  0  0  0           0  0  0
    8.7708   -1.7583    0.0000 C   0  0  0  0  0  0           0  0  0
    8.0583   -1.3417    0.0000 C   0  0  0  0  0  0           0  0  0
    7.3458   -1.7542    0.0000 O   0  0  0  0  0  0           0  0  0
    8.0625   -0.5167    0.0000 O   0  0  0  0  0  0           0  0  0
    1.6391    0.6903    0.0000 C   0  0  0  0  0  0           0  0  0
    1.6441   -0.1370    0.0000 C   0  0  0  0  0  0           0  0  0
    2.3619   -0.5446    0.0000 C   0  0  0  0  0  0           0  0  0
    3.0753   -0.1260    0.0000 C   0  0  0  0  0  0           0  0  0
    3.0663    0.7045    0.0000 C   0  0  0  0  0  0           0  0  0
    2.3479    1.1083    0.0000 C   0  0  0  0  0  0           0  0  0
    2.3599   -1.3669    0.0000 O   0  0  0  0  0  0           0  0  0
    0.9288   -0.5484    0.0000 O   0  0  0  0  0  0           0  0  0
    3.7738    1.1273    0.0000 C   0  0  0  0  0  0           0  0  0
    4.4917    0.7208    0.0000 C   0  0  0  0  0  0           0  0  0
    5.2042    1.1375    0.0000 C   0  0  0  0  0  0           0  0  0
    5.9167    0.7250    0.0000 O   0  0  0  0  0  0           0  0  0
    5.2000    1.9625    0.0000 O   0  0  0  0  0  0           0  0  0
    5.2125   -0.5167    0.0000 C   0  0  0  0  0  0           0  0  0
    5.2125   -1.3417    0.0000 C   0  0  2  0  0  0           0  0  0
    5.9245   -1.7500    0.0000 C   0  0  0  0  0  0           0  0  0
    6.6365   -1.3417    0.0000 C   0  0  2  0  0  0           0  0  0
    6.6365   -0.5167    0.0000 C   0  0  2  0  0  0           0  0  0
    5.9245   -0.1000    0.0000 C   0  0  2  0  0  0           0  0  0
    7.3458   -0.1000    0.0000 O   0  0  0  0  0  0           0  0  0
    5.2083   -2.1667    0.0000 O   0  0  0  0  0  0           0  0  0
    4.4958   -0.9292    0.0000 C   0  0  0  0  0  0           0  0  0
    3.7792   -1.3375    0.0000 O   0  0  0  0  0  0           0  0  0
    4.4917   -0.1042    0.0000 O   0  0  0  0  0  0           0  0  0
 18 19  2  0     0  0
 19 14  1  0     0  0
  4  5  1  0     0  0
 16 20  1  0     0  0
  9 10  2  0     0  0
 15 21  1  0     0  0
  2  3  1  0     0  0
 18 22  1  0     0  0
 10 11  1  0     0  0
 22 23  2  0     0  0
  5  6  2  0     0  0
 23 24  1  0     0  0
 11 12  1  0     0  0
 24 25  1  0     0  0
  6  1  1  0     0  0
 24 26  2  0     0  0
 27 28  1  0     0  0
 11 13  2  0     0  0
  1  2  2  0     0  0
  3  7  1  0     0  0
 14 15  2  0     0  0
  3  4  2  0     0  0
 15 16  1  0     0  0
 27 32  1  0     0  0
 28 29  1  0     0  0
 29 30  1  0     0  0
 30 31  1  0     0  0
 31 32  1  0     0  0
  2  8  1  0     0  0
 31 33  1  6     0  0
 30 12  1  6     0  0
 16 17  2  0     0  0
 28 34  1  6     0  0
 32 25  1  1     0  0
 28 35  1  1     0  0
 17 18  1  0     0  0
 35 36  1  0     0  0
  5  9  1  0     0  0
 35 37  2  0     0  0
M  END
>  <prID>
80

>  <IDDB>
28062

>  <pIC50_HIV_Integrase>
6.200659451

>  <Q>
-5.938918758

>  <Activity_Integrase>
Active_Integrase

NA
NA
NA
NA
$$$$

  Accelrys05311914352D 1   1.00000     0.00000     0

 21 22  0     0  0            999 V2000
    9.0645  -11.3648    0.0000 C   0  0  0  0  0  0           0  0  0
    9.0633  -12.1922    0.0000 C   0  0  0  0  0  0           0  0  0
    9.7781  -12.6050    0.0000 C   0  0  0  0  0  0           0  0  0
   10.4946  -12.1917    0.0000 C   0  0  0  0  0  0           0  0  0
   10.4917  -11.3612    0.0000 C   0  0  0  0  0  0           0  0  0
    9.7763  -10.9520    0.0000 C   0  0  0  0  0  0           0  0  0
    6.9258  -12.6047    0.0000 O   0  0  0  0  0  0           0  0  0
    7.6383  -12.1922    0.0000 C   0  0  0  0  0  0           0  0  0
    8.3508  -12.6047    0.0000 C   0  0  0  0  0  0           0  0  0
    4.0758  -12.6130    0.0000 C   0  0  0  0  0  0           0  0  0
    4.7883  -12.2005    0.0000 C   0  0  0  0  0  0           0  0  0
    5.5008  -12.6088    0.0000 C   0  0  0  0  0  0           0  0  0
    6.2133  -12.1963    0.0000 C   0  0  0  0  0  0           0  0  0
    2.6486  -12.6166    0.0000 C   0  0  0  0  0  0           0  0  0
    2.6474  -13.4440    0.0000 C   0  0  0  0  0  0           0  0  0
    3.3622  -13.8569    0.0000 C   0  0  0  0  0  0           0  0  0
    4.0787  -13.4435    0.0000 C   0  0  0  0  0  0           0  0  0
    3.3604  -12.2039    0.0000 C   0  0  0  0  0  0           0  0  0
    6.2083  -11.3708    0.0000 O   0  0  0  0  0  0           0  0  0
    1.9292  -12.2000    0.0000 O   0  0  0  0  0  0           0  0  0
    1.9292  -13.8500    0.0000 O   0  0  0  0  0  0           0  0  0
 10 11  1  0     0  0
  5  6  2  0     0  0
 11 12  2  0     0  0
  6  1  1  0     0  0
 12 13  1  0     0  0
 13  7  1  0     0  0
  1  2  2  0     0  0
  3  4  2  0     0  0
 14 15  2  0     0  0
  7  8  1  0     0  0
 15 16  1  0     0  0
 16 17  2  0     0  0
 17 10  1  0     0  0
  8  9  1  0     0  0
 10 18  2  0     0  0
 18 14  1  0     0  0
  9  2  1  0     0  0
 13 19  2  0     0  0
  4  5  1  0     0  0
 14 20  1  0     0  0
  2  3  1  0     0  0
 15 21  1  0     0  0
M  END
>  <prID>
81

>  <IDDB>
28600

>  <pIC50_HIV_Integrase>
5

>  <Q>
-0.697765155

>  <Activity_Integrase>
Inactive_Integrase

NA
NA
NA
NA
$$$$

  Accelrys05311914352D 1   1.00000     0.00000     0

 25 27  0     0  0            999 V2000
    1.5417    0.8333    0.0000 S   0  0  3  0  0  0           0  0  0
    2.9583    0.6417    0.0000 C   0  0  0  0  0  0           0  0  0
   -3.6833    0.1375    0.0000 S   0  0  0  0  0  0           0  0  0
   -2.9333   -0.2250    0.0000 C   0  0  3  0  0  0           0  0  0
   -3.8625   -1.1833    0.0000 N   0  0  0  0  0  0           0  0  0
    2.3042    1.1417    0.0000 N   0  0  0  0  0  0           0  0  0
   -4.2458   -0.4542    0.0000 C   0  0  0  0  0  0           0  0  0
    3.0167   -0.1833    0.0000 S   0  0  0  0  0  0           0  0  0
   -3.0500   -1.0375    0.0000 C   0  0  0  0  0  0           0  0  0
    3.7250    0.9542    0.0000 N   0  0  0  0  0  0           0  0  0
    4.2583    0.3208    0.0000 N   0  0  0  0  0  0           0  0  0
   -2.1708    0.0875    0.0000 N   0  0  0  0  0  0           0  0  0
    3.8208   -0.3750    0.0000 C   0  0  0  0  0  0           0  0  0
    0.7792    0.5208    0.0000 C   0  0  0  0  0  0           0  0  0
   -1.5167   -0.4167    0.0000 N   0  0  0  0  0  0           0  0  0
    1.8583    0.0667    0.0000 O   0  0  0  0  0  0           0  0  0
    1.2333    1.5958    0.0000 O   0  0  0  0  0  0           0  0  0
   -5.0667   -0.3292    0.0000 S   0  0  0  0  0  0           0  0  0
   -2.4458   -1.6250    0.0000 O   0  0  0  0  0  0           0  0  0
    0.1250    1.0250    0.0000 C   0  0  0  0  0  0           0  0  0
    0.6667   -0.3000    0.0000 C   0  0  0  0  0  0           0  0  0
   -0.7542   -0.1042    0.0000 C   0  0  0  0  0  0           0  0  0
   -0.1000   -0.6125    0.0000 C   0  0  0  0  0  0           0  0  0
   -0.6417    0.7125    0.0000 C   0  0  0  0  0  0           0  0  0
    4.1375   -1.1417    0.0000 C   0  0  0  0  0  0           0  0  0
  2  6  1  0     0  0
  3  4  1  0     0  0
  4 12  1  0     0  0
  5  9  1  0     0  0
  6  1  1  0     0  0
  7  3  1  0     0  0
  8  2  1  0     0  0
  9  4  1  0     0  0
 10  2  2  0     0  0
 11 10  1  0     0  0
 12 15  2  0     0  0
 13  8  1  0     0  0
 14  1  1  0     0  0
 15 22  1  0     0  0
 16  1  2  0     0  0
 17  1  2  0     0  0
 18  7  2  0     0  0
 19  9  2  0     0  0
 20 14  2  0     0  0
 21 14  1  0     0  0
 22 24  2  0     0  0
 23 21  2  0     0  0
 24 20  1  0     0  0
 25 13  1  0     0  0
 22 23  1  0     0  0
 13 11  2  0     0  0
  7  5  1  0     0  0
M  END
>  <prID>
82

>  <IDDB>
29129

>  <pIC50_HIV_Integrase>
4.721246399

>  <Q>
0.537623138

>  <Activity_Integrase>
Inactive_Integrase

NA
NA
NA
NA
$$$$

  Accelrys05311914352D 1   1.00000     0.00000     0

 25 27  0     0  0            999 V2000
   -1.7417   -0.6000    0.0000 S   0  0  3  0  0  0           0  0  0
    3.3625   -0.5417    0.0000 S   0  0  0  0  0  0           0  0  0
    2.8083    0.0792    0.0000 C   0  0  3  0  0  0           0  0  0
    4.0292    0.6042    0.0000 N   0  0  0  0  0  0           0  0  0
    4.1042   -0.2125    0.0000 C   0  0  0  0  0  0           0  0  0
   -2.5792   -0.6042    0.0000 N   0  0  0  0  0  0           0  0  0
    3.2208    0.7875    0.0000 C   0  0  0  0  0  0           0  0  0
    1.9792    0.0833    0.0000 N   0  0  0  0  0  0           0  0  0
   -3.0000    0.1167    0.0000 C   0  0  0  0  0  0           0  0  0
   -0.9208   -0.6000    0.0000 C   0  0  0  0  0  0           0  0  0
    1.5583   -0.6208    0.0000 N   0  0  0  0  0  0           0  0  0
   -1.7417    0.2208    0.0000 O   0  0  0  0  0  0           0  0  0
   -1.7417   -1.4250    0.0000 O   0  0  0  0  0  0           0  0  0
    4.8125   -0.6417    0.0000 S   0  0  0  0  0  0           0  0  0
   -3.8292    0.1208    0.0000 N   0  0  0  0  0  0           0  0  0
   -2.5833    0.8250    0.0000 N   0  0  0  0  0  0           0  0  0
    2.8917    1.5542    0.0000 O   0  0  0  0  0  0           0  0  0
   -0.5000    0.1125    0.0000 C   0  0  0  0  0  0           0  0  0
   -0.5083   -1.3167    0.0000 C   0  0  0  0  0  0           0  0  0
    0.7375   -0.6125    0.0000 C   0  0  0  0  0  0           0  0  0
    0.3167   -1.3208    0.0000 C   0  0  0  0  0  0           0  0  0
    0.3250    0.1083    0.0000 C   0  0  0  0  0  0           0  0  0
   -3.8208    1.5500    0.0000 C   0  0  0  0  0  0           0  0  0
   -2.9917    1.5458    0.0000 C   0  0  0  0  0  0           0  0  0
   -4.2375    0.8375    0.0000 C   0  0  0  0  0  0           0  0  0
  2  3  1  0     0  0
  3  8  1  0     0  0
  4  7  1  0     0  0
  5  2  1  0     0  0
  6  1  1  0     0  0
  7  3  1  0     0  0
  8 11  2  0     0  0
  9  6  1  0     0  0
 10  1  1  0     0  0
 11 20  1  0     0  0
 12  1  2  0     0  0
 13  1  2  0     0  0
 14  5  2  0     0  0
 15  9  2  0     0  0
 16  9  1  0     0  0
 17  7  2  0     0  0
 18 10  2  0     0  0
 19 10  1  0     0  0
 20 21  1  0     0  0
 21 19  2  0     0  0
 22 18  1  0     0  0
 23 24  1  0     0  0
 24 16  2  0     0  0
 25 15  1  0     0  0
 22 20  2  0     0  0
 23 25  2  0     0  0
  5  4  1  0     0  0
M  END
>  <prID>
83

>  <IDDB>
29130

>  <pIC50_HIV_Integrase>
4.853871964

>  <Q>
0.573183945

>  <Activity_Integrase>
Inactive_Integrase

NA
NA
NA
NA
$$$$

  Accelrys05311914352D 1   1.00000     0.00000     0

 28 31  0     0  0            999 V2000
    5.7875   -1.8458    0.0000 S   0  0  3  0  0  0           0  0  0
    5.0750   -1.4375    0.0000 N   0  0  0  0  0  0           0  0  0
    4.1828   -1.7583    0.0000 C   0  0  0  0  0  0           0  0  0
    3.9616   -2.5532    0.0000 N   0  0  0  0  0  0           0  0  0
    3.5035   -1.3075    0.0000 C   0  0  0  0  0  0           0  0  0
   10.0772   -3.4691    0.0000 C   0  0  0  0  0  0           0  0  0
    9.3563   -3.0642    0.0000 C   0  0  0  0  0  0           0  0  0
   10.7827   -3.0493    0.0000 C   0  0  0  0  0  0           0  0  0
    3.1435   -2.5901    0.0000 O   0  0  0  0  0  0           0  0  0
    6.5083   -2.2583    0.0000 C   0  0  0  0  0  0           0  0  0
    2.8584   -1.8139    0.0000 C   0  0  0  0  0  0           0  0  0
    8.6473   -3.4860    0.0000 N   0  0  0  0  0  0           0  0  0
    6.2000   -1.1333    0.0000 O   0  0  0  0  0  0           0  0  0
    5.3750   -2.5583    0.0000 O   0  0  0  0  0  0           0  0  0
   11.5036   -3.4543    0.0000 C   0  0  0  0  0  0           0  0  0
   10.0892   -4.2959    0.0000 C   0  0  0  0  0  0           0  0  0
   10.7707   -2.2226    0.0000 N   0  0  0  0  0  0           0  0  0
    7.2166   -1.8458    0.0000 C   0  0  0  0  0  0           0  0  0
    6.5083   -3.0833    0.0000 C   0  0  0  0  0  0           0  0  0
    7.9333   -3.0833    0.0000 C   0  0  0  0  0  0           0  0  0
   11.5149   -4.2719    0.0000 C   0  0  0  0  0  0           0  0  0
    9.3464   -2.2409    0.0000 C   0  0  0  0  0  0           0  0  0
   10.8059   -4.6937    0.0000 C   0  0  0  0  0  0           0  0  0
   10.0554   -1.8191    0.0000 C   0  0  0  0  0  0           0  0  0
    7.2166   -3.4958    0.0000 C   0  0  0  0  0  0           0  0  0
    7.9333   -2.2583    0.0000 C   0  0  0  0  0  0           0  0  0
   12.2379   -4.6804    0.0000 Cl  0  0  0  0  0  0           0  0  0
    2.0642   -1.5886    0.0000 C   0  0  0  0  0  0           0  0  0
  2  1  1  0     0  0
  3  2  1  0     0  0
  4  3  2  0     0  0
  5  3  1  0     0  0
  6  7  2  0     0  0
  7 12  1  0     0  0
  8  6  1  0     0  0
  9  4  1  0     0  0
 10  1  1  0     0  0
 11  5  2  0     0  0
 12 20  1  0     0  0
 13  1  2  0     0  0
 14  1  2  0     0  0
 15  8  1  0     0  0
 16  6  1  0     0  0
 17 24  1  0     0  0
 18 10  1  0     0  0
 19 10  2  0     0  0
 20 25  2  0     0  0
 21 23  1  0     0  0
 22  7  1  0     0  0
 23 16  2  0     0  0
 24 22  2  0     0  0
 25 19  1  0     0  0
 26 18  2  0     0  0
 27 21  1  0     0  0
 28 11  1  0     0  0
 26 20  1  0     0  0
 11  9  1  0     0  0
 17  8  2  0     0  0
 21 15  2  0     0  0
M  END
>  <prID>
84

>  <IDDB>
29331

>  <pIC50_HIV_Integrase>
3.826813732

>  <Q>
-2.434047052

>  <Activity_Integrase>
Inactive_Integrase

NA
NA
NA
NA
$$$$

  Accelrys05311914352D 1   1.00000     0.00000     0

 26 28  0     0  0            999 V2000
   -1.2042    0.9500    0.0000 S   0  0  3  0  0  0           0  0  0
    0.2333    0.9583    0.0000 C   0  0  0  0  0  0           0  0  0
    1.0167    1.2083    0.0000 N   0  0  0  0  0  0           0  0  0
   -1.9250    0.5375    0.0000 C   0  0  0  0  0  0           0  0  0
   -0.4833    1.3667    0.0000 N   0  0  0  0  0  0           0  0  0
    1.5000    0.5417    0.0000 C   0  0  0  0  0  0           0  0  0
    1.0167   -0.1292    0.0000 N   0  0  0  0  0  0           0  0  0
    0.2333    0.1250    0.0000 N   0  0  0  0  0  0           0  0  0
   -1.9250   -0.2917    0.0000 C   0  0  0  0  0  0           0  0  0
   -2.6375    0.9458    0.0000 C   0  0  0  0  0  0           0  0  0
   -2.6375   -0.7000    0.0000 C   0  0  0  0  0  0           0  0  0
   -3.3542   -0.2917    0.0000 C   0  0  0  0  0  0           0  0  0
   -0.7875    0.2292    0.0000 O   0  0  0  0  0  0           0  0  0
   -1.6208    1.6708    0.0000 O   0  0  0  0  0  0           0  0  0
   -3.3542    0.5375    0.0000 C   0  0  0  0  0  0           0  0  0
    2.3250    0.5417    0.0000 N   0  0  0  0  0  0           0  0  0
   -1.2042   -0.7167    0.0000 S   0  0  0  0  0  0           0  0  0
    2.7375   -0.1750    0.0000 C   0  0  0  0  0  0           0  0  0
   -4.0750   -0.7125    0.0000 Cl  0  0  0  0  0  0           0  0  0
    3.5667   -1.6083    0.0000 C   0  0  0  0  0  0           0  0  0
    3.5667   -0.1750    0.0000 C   0  0  0  0  0  0           0  0  0
    2.3250   -0.8917    0.0000 C   0  0  0  0  0  0           0  0  0
    2.7375   -1.6083    0.0000 C   0  0  0  0  0  0           0  0  0
    3.9792   -0.8875    0.0000 C   0  0  0  0  0  0           0  0  0
   -4.0750    0.9458    0.0000 C   0  0  0  0  0  0           0  0  0
    3.9833   -2.3333    0.0000 C   0  0  0  0  0  0           0  0  0
  2  5  1  0     0  0
  3  2  2  0     0  0
  4  1  1  0     0  0
  5  1  1  0     0  0
  6  3  1  0     0  0
  7  8  1  0     0  0
  8  2  1  0     0  0
  9  4  1  0     0  0
 10  4  2  0     0  0
 11  9  2  0     0  0
 12 15  2  0     0  0
 13  1  2  0     0  0
 14  1  2  0     0  0
 15 10  1  0     0  0
 16  6  1  0     0  0
 17  9  1  0     0  0
 18 16  1  0     0  0
 19 12  1  0     0  0
 20 23  2  0     0  0
 21 18  1  0     0  0
 22 18  2  0     0  0
 23 22  1  0     0  0
 24 21  2  0     0  0
 25 15  1  0     0  0
 26 20  1  0     0  0
 12 11  1  0     0  0
  7  6  2  0     0  0
 20 24  1  0     0  0
M  END
>  <prID>
85

>  <IDDB>
29422

>  <pIC50_HIV_Integrase>
4.621602099

>  <Q>
-1.823837708

>  <Activity_Integrase>
Inactive_Integrase

NA
NA
NA
NA
$$$$

  Accelrys05311914352D 1   1.00000     0.00000     0

 27 29  0     0  0            999 V2000
   -1.3833    1.0375    0.0000 S   0  0  3  0  0  0           0  0  0
    0.0583    1.0417    0.0000 C   0  0  0  0  0  0           0  0  0
    0.8375    1.2958    0.0000 N   0  0  0  0  0  0           0  0  0
   -2.1000    0.6208    0.0000 C   0  0  0  0  0  0           0  0  0
   -0.6625    1.4542    0.0000 N   0  0  0  0  0  0           0  0  0
    1.3208    0.6250    0.0000 C   0  0  0  0  0  0           0  0  0
    0.8375   -0.0375    0.0000 N   0  0  0  0  0  0           0  0  0
    0.0583    0.2125    0.0000 N   0  0  0  0  0  0           0  0  0
   -2.1000   -0.2042    0.0000 C   0  0  0  0  0  0           0  0  0
   -2.8167    1.0333    0.0000 C   0  0  0  0  0  0           0  0  0
   -2.8167   -0.6167    0.0000 C   0  0  0  0  0  0           0  0  0
   -3.5333   -0.2042    0.0000 C   0  0  0  0  0  0           0  0  0
   -0.9625    0.3167    0.0000 O   0  0  0  0  0  0           0  0  0
   -1.8000    1.7625    0.0000 O   0  0  0  0  0  0           0  0  0
   -3.5333    0.6208    0.0000 C   0  0  0  0  0  0           0  0  0
    2.1458    0.6250    0.0000 N   0  0  0  0  0  0           0  0  0
   -1.3833   -0.6292    0.0000 S   0  0  0  0  0  0           0  0  0
    2.5583   -0.0875    0.0000 C   0  0  0  0  0  0           0  0  0
   -4.2542   -0.6250    0.0000 Cl  0  0  0  0  0  0           0  0  0
    3.3875   -1.5167    0.0000 C   0  0  0  0  0  0           0  0  0
    3.3875   -0.0875    0.0000 C   0  0  0  0  0  0           0  0  0
    2.1458   -0.8042    0.0000 C   0  0  0  0  0  0           0  0  0
    2.5583   -1.5167    0.0000 C   0  0  0  0  0  0           0  0  0
    3.8000   -0.8000    0.0000 C   0  0  0  0  0  0           0  0  0
    3.8042   -2.2458    0.0000 O   0  0  0  0  0  0           0  0  0
   -4.2542    1.0333    0.0000 C   0  0  0  0  0  0           0  0  0
    4.6375   -2.2500    0.0000 C   0  0  0  0  0  0           0  0  0
  2  5  1  0     0  0
  3  2  2  0     0  0
  4  1  1  0     0  0
  5  1  1  0     0  0
  6  3  1  0     0  0
  7  8  1  0     0  0
  8  2  1  0     0  0
  9  4  1  0     0  0
 10  4  2  0     0  0
 11  9  2  0     0  0
 12 15  2  0     0  0
 13  1  2  0     0  0
 14  1  2  0     0  0
 15 10  1  0     0  0
 16  6  1  0     0  0
 17  9  1  0     0  0
 18 16  1  0     0  0
 19 12  1  0     0  0
 20 23  2  0     0  0
 21 18  1  0     0  0
 22 18  2  0     0  0
 23 22  1  0     0  0
 24 21  2  0     0  0
 25 20  1  0     0  0
 26 15  1  0     0  0
 27 25  1  0     0  0
 12 11  1  0     0  0
  7  6  2  0     0  0
 20 24  1  0     0  0
M  END
>  <prID>
86

>  <IDDB>
29423

>  <pIC50_HIV_Integrase>
4.850780887

>  <Q>
-1.895120879

>  <Activity_Integrase>
Inactive_Integrase

NA
NA
NA
NA
$$$$

  Accelrys05311914352D 1   1.00000     0.00000     0

 31 33  0     0  0            999 V2000
   -1.8167    1.2125    0.0000 S   0  0  3  0  0  0           0  0  0
   -0.3792    1.2167    0.0000 C   0  0  0  0  0  0           0  0  0
    0.4042    1.4708    0.0000 N   0  0  0  0  0  0           0  0  0
   -2.5375    0.7958    0.0000 C   0  0  0  0  0  0           0  0  0
   -1.0958    1.6292    0.0000 N   0  0  0  0  0  0           0  0  0
    0.8917    0.8000    0.0000 C   0  0  0  0  0  0           0  0  0
    0.4042    0.1333    0.0000 N   0  0  0  0  0  0           0  0  0
   -0.3792    0.3833    0.0000 N   0  0  0  0  0  0           0  0  0
   -2.5375   -0.0292    0.0000 C   0  0  0  0  0  0           0  0  0
   -3.2458    1.2083    0.0000 C   0  0  0  0  0  0           0  0  0
    2.9583   -1.3458    0.0000 C   0  0  0  0  0  0           0  0  0
    2.1250   -1.3458    0.0000 C   0  0  0  0  0  0           0  0  0
    3.3708   -0.6250    0.0000 C   0  0  0  0  0  0           0  0  0
   -3.2458   -0.4417    0.0000 C   0  0  0  0  0  0           0  0  0
    2.1250    0.0833    0.0000 C   0  0  0  0  0  0           0  0  0
    1.7167    0.8000    0.0000 N   0  0  0  0  0  0           0  0  0
   -3.9625   -0.0292    0.0000 C   0  0  0  0  0  0           0  0  0
    2.9583    0.0833    0.0000 C   0  0  0  0  0  0           0  0  0
    1.7167   -0.6292    0.0000 C   0  0  0  0  0  0           0  0  0
   -2.2292    1.9333    0.0000 O   0  0  0  0  0  0           0  0  0
   -1.4000    0.4917    0.0000 O   0  0  0  0  0  0           0  0  0
   -3.9625    0.7958    0.0000 C   0  0  0  0  0  0           0  0  0
   -1.8167   -0.4583    0.0000 S   0  0  0  0  0  0           0  0  0
   -4.6833   -0.4500    0.0000 Cl  0  0  0  0  0  0           0  0  0
    3.3750   -2.0708    0.0000 O   0  0  0  0  0  0           0  0  0
    1.7042   -2.0667    0.0000 O   0  0  0  0  0  0           0  0  0
    4.1958   -0.6167    0.0000 O   0  0  0  0  0  0           0  0  0
   -4.6833    1.2083    0.0000 C   0  0  0  0  0  0           0  0  0
    4.2042   -2.0792    0.0000 C   0  0  0  0  0  0           0  0  0
    4.8833    0.0792    0.0000 C   0  0  0  0  0  0           0  0  0
    0.8792   -2.0625    0.0000 C   0  0  0  0  0  0           0  0  0
  2  5  1  0     0  0
  3  2  2  0     0  0
  4  1  1  0     0  0
  5  1  1  0     0  0
  6  3  1  0     0  0
  7  8  1  0     0  0
  8  2  1  0     0  0
  9  4  1  0     0  0
 10  4  2  0     0  0
 11 12  2  0     0  0
 12 19  1  0     0  0
 13 18  2  0     0  0
 14  9  2  0     0  0
 15 16  1  0     0  0
 16  6  1  0     0  0
 17 22  2  0     0  0
 18 15  1  0     0  0
 19 15  2  0     0  0
 20  1  2  0     0  0
 21  1  2  0     0  0
 22 10  1  0     0  0
 23  9  1  0     0  0
 24 17  1  0     0  0
 25 11  1  0     0  0
 26 12  1  0     0  0
 27 13  1  0     0  0
 28 22  1  0     0  0
 29 25  1  0     0  0
 30 27  1  0     0  0
 31 26  1  0     0  0
 17 14  1  0     0  0
  7  6  2  0     0  0
 11 13  1  0     0  0
M  END
>  <prID>
87

>  <IDDB>
29424

>  <pIC50_HIV_Integrase>
4.777283529

>  <Q>
-2.367119766

>  <Activity_Integrase>
Inactive_Integrase

NA
NA
NA
NA
$$$$

  Accelrys05311914352D 1   1.00000     0.00000     0

 29 31  0     0  0            999 V2000
   -0.6833    0.9125    0.0000 S   0  0  3  0  0  0           0  0  0
   -1.4042    0.4958    0.0000 C   0  0  0  0  0  0           0  0  0
    0.7542    0.9167    0.0000 C   0  0  0  0  0  0           0  0  0
    1.5375    1.1708    0.0000 N   0  0  0  0  0  0           0  0  0
    0.0375    1.3292    0.0000 N   0  0  0  0  0  0           0  0  0
    2.0167    0.5000    0.0000 C   0  0  0  0  0  0           0  0  0
    1.5375   -0.1667    0.0000 N   0  0  0  0  0  0           0  0  0
   -2.1208    0.9042    0.0000 C   0  0  0  0  0  0           0  0  0
    0.7542    0.0833    0.0000 N   0  0  0  0  0  0           0  0  0
   -1.4042   -0.3292    0.0000 C   0  0  0  0  0  0           0  0  0
   -2.8333    0.4958    0.0000 C   0  0  0  0  0  0           0  0  0
   -2.1208   -0.7417    0.0000 C   0  0  0  0  0  0           0  0  0
   -2.8333   -0.3292    0.0000 C   0  0  0  0  0  0           0  0  0
   -1.1000    1.6333    0.0000 O   0  0  0  0  0  0           0  0  0
   -0.2667    0.1917    0.0000 O   0  0  0  0  0  0           0  0  0
   -3.5542    0.9042    0.0000 O   0  0  0  0  0  0           0  0  0
    2.8458    0.5000    0.0000 N   0  0  0  0  0  0           0  0  0
   -4.2667    0.4917    0.0000 C   0  0  0  0  0  0           0  0  0
   -4.9875    0.9000    0.0000 O   0  0  0  0  0  0           0  0  0
   -0.6833   -0.7583    0.0000 S   0  0  0  0  0  0           0  0  0
    3.2583   -0.2167    0.0000 C   0  0  0  0  0  0           0  0  0
   -3.5542   -0.7500    0.0000 Cl  0  0  0  0  0  0           0  0  0
    4.0875   -1.6458    0.0000 C   0  0  0  0  0  0           0  0  0
    2.8458   -0.9292    0.0000 C   0  0  0  0  0  0           0  0  0
    4.0875   -0.2167    0.0000 C   0  0  0  0  0  0           0  0  0
    3.2583   -1.6458    0.0000 C   0  0  0  0  0  0           0  0  0
    4.5000   -0.9250    0.0000 C   0  0  0  0  0  0           0  0  0
   -4.2625   -0.3375    0.0000 C   0  0  0  0  0  0           0  0  0
    4.5042   -2.3708    0.0000 C   0  0  0  0  0  0           0  0  0
  2  1  1  0     0  0
  3  5  1  0     0  0
  4  3  2  0     0  0
  5  1  1  0     0  0
  6  4  1  0     0  0
  7  9  1  0     0  0
  8  2  2  0     0  0
  9  3  1  0     0  0
 10  2  1  0     0  0
 11  8  1  0     0  0
 12 10  2  0     0  0
 13 12  1  0     0  0
 14  1  2  0     0  0
 15  1  2  0     0  0
 16 11  1  0     0  0
 17  6  1  0     0  0
 18 16  1  0     0  0
 19 18  2  0     0  0
 20 10  1  0     0  0
 21 17  1  0     0  0
 22 13  1  0     0  0
 23 26  2  0     0  0
 24 21  2  0     0  0
 25 21  1  0     0  0
 26 24  1  0     0  0
 27 25  2  0     0  0
 28 18  1  0     0  0
 29 23  1  0     0  0
  7  6  2  0     0  0
 13 11  2  0     0  0
 23 27  1  0     0  0
M  END
>  <prID>
88

>  <IDDB>
29425

>  <pIC50_HIV_Integrase>
5.004364805

>  <Q>
-2.447820637

>  <Activity_Integrase>
Inactive_Integrase

NA
NA
NA
NA
$$$$

  Accelrys05311914352D 1   1.00000     0.00000     0

 50 55  0     0  0            999 V2000
    2.1333    2.2750    0.0000 S   0  0  3  0  0  0           0  0  0
   -1.4458    0.2292    0.0000 S   0  0  3  0  0  0           0  0  0
   -0.7250   -0.1917    0.0000 C   0  0  0  0  0  0           0  0  0
    1.4125    2.7042    0.0000 C   0  0  0  0  0  0           0  0  0
    2.8458    1.0167    0.0000 C   0  0  0  0  0  0           0  0  0
   -2.8875    0.2417    0.0000 C   0  0  0  0  0  0           0  0  0
    3.4625    0.4625    0.0000 N   0  0  0  0  0  0           0  0  0
   -3.0667   -0.5708    0.0000 N   0  0  0  0  0  0           0  0  0
    2.8542    1.8500    0.0000 N   0  0  0  0  0  0           0  0  0
   -2.1667    0.6500    0.0000 N   0  0  0  0  0  0           0  0  0
    3.1292   -0.2833    0.0000 C   0  0  0  0  0  0           0  0  0
   -3.8875   -0.6500    0.0000 C   0  0  0  0  0  0           0  0  0
    0.7000    2.2875    0.0000 C   0  0  0  0  0  0           0  0  0
   -0.0125    0.2208    0.0000 C   0  0  0  0  0  0           0  0  0
    2.3083   -0.2042    0.0000 N   0  0  0  0  0  0           0  0  0
   -4.2208    0.1042    0.0000 N   0  0  0  0  0  0           0  0  0
    2.1333    0.6042    0.0000 N   0  0  0  0  0  0           0  0  0
   -3.6000    0.6542    0.0000 N   0  0  0  0  0  0           0  0  0
    1.4125    3.5292    0.0000 C   0  0  0  0  0  0           0  0  0
   -0.7250   -1.0167    0.0000 C   0  0  0  0  0  0           0  0  0
   -0.0167    2.7042    0.0000 C   0  0  0  0  0  0           0  0  0
    0.7042   -0.1917    0.0000 C   0  0  0  0  0  0           0  0  0
    0.7000    1.4625    0.0000 S   0  0  0  0  0  0           0  0  0
   -0.0125    1.0500    0.0000 S   0  0  0  0  0  0           0  0  0
   -0.0167    3.5292    0.0000 C   0  0  0  0  0  0           0  0  0
    0.7042   -1.0167    0.0000 C   0  0  0  0  0  0           0  0  0
    2.5583    2.9958    0.0000 O   0  0  0  0  0  0           0  0  0
   -1.0250    0.9500    0.0000 O   0  0  0  0  0  0           0  0  0
   -1.8667   -0.4917    0.0000 O   0  0  0  0  0  0           0  0  0
    1.7083    1.5542    0.0000 O   0  0  0  0  0  0           0  0  0
   -0.0125   -1.4333    0.0000 C   0  0  0  0  0  0           0  0  0
    0.7000    3.9417    0.0000 C   0  0  0  0  0  0           0  0  0
    3.5542   -0.9958    0.0000 N   0  0  0  0  0  0           0  0  0
   -4.3125   -1.3708    0.0000 N   0  0  0  0  0  0           0  0  0
   -0.7375    3.9500    0.0000 Cl  0  0  0  0  0  0           0  0  0
    1.4250   -1.4375    0.0000 Cl  0  0  0  0  0  0           0  0  0
    3.1500   -1.7167    0.0000 C   0  0  0  0  0  0           0  0  0
   -3.9042   -2.0958    0.0000 C   0  0  0  0  0  0           0  0  0
    0.7000    4.7625    0.0000 C   0  0  0  0  0  0           0  0  0
   -0.0208   -2.2583    0.0000 C   0  0  0  0  0  0           0  0  0
    3.5708   -2.4250    0.0000 C   0  0  0  0  0  0           0  0  0
    2.3250   -1.7292    0.0000 C   0  0  0  0  0  0           0  0  0
   -3.0750   -2.1042    0.0000 C   0  0  0  0  0  0           0  0  0
   -4.3250   -2.8083    0.0000 C   0  0  0  0  0  0           0  0  0
    3.1667   -3.1500    0.0000 C   0  0  0  0  0  0           0  0  0
    1.9208   -2.4458    0.0000 C   0  0  0  0  0  0           0  0  0
   -2.6625   -2.8167    0.0000 C   0  0  0  0  0  0           0  0  0
   -3.9208   -3.5333    0.0000 C   0  0  0  0  0  0           0  0  0
    2.3417   -3.1583    0.0000 C   0  0  0  0  0  0           0  0  0
   -3.0958   -3.5458    0.0000 C   0  0  0  0  0  0           0  0  0
  2  3  1  0     0  0
  3 14  1  0     0  0
  4  1  1  0     0  0
  5  9  1  0     0  0
  6 10  1  0     0  0
  7  5  2  0     0  0
  8  6  2  0     0  0
  9  1  1  0     0  0
 10  2  1  0     0  0
 11  7  1  0     0  0
 12  8  1  0     0  0
 13  4  2  0     0  0
 14 24  1  0     0  0
 15 17  1  0     0  0
 16 18  1  0     0  0
 17  5  1  0     0  0
 18  6  1  0     0  0
 19  4  1  0     0  0
 20  3  2  0     0  0
 21 13  1  0     0  0
 22 14  2  0     0  0
 23 13  1  0     0  0
 24 23  1  0     0  0
 25 32  1  0     0  0
 26 22  1  0     0  0
 27  1  2  0     0  0
 28  2  2  0     0  0
 29  2  2  0     0  0
 30  1  2  0     0  0
 31 26  2  0     0  0
 32 19  2  0     0  0
 33 11  1  0     0  0
 34 12  1  0     0  0
 35 25  1  0     0  0
 36 26  1  0     0  0
 37 33  1  0     0  0
 38 34  1  0     0  0
 39 32  1  0     0  0
 40 31  1  0     0  0
 41 37  1  0     0  0
 42 37  2  0     0  0
 43 38  1  0     0  0
 44 38  2  0     0  0
 45 41  2  0     0  0
 46 42  1  0     0  0
 47 43  2  0     0  0
 48 44  1  0     0  0
 49 46  2  0     0  0
 50 48  2  0     0  0
 15 11  2  0     0  0
 25 21  2  0     0  0
 31 20  1  0     0  0
 49 45  1  0     0  0
 16 12  2  0     0  0
 50 47  1  0     0  0
M  END
>  <prID>
89

>  <IDDB>
29426

>  <pIC50_HIV_Integrase>
5.080921908

>  <Q>
-4.730547652

>  <Activity_Integrase>
Inactive_Integrase

NA
NA
NA
NA
$$$$

  Accelrys05311914352D 1   1.00000     0.00000     0

 26 29  0     0  0            999 V2000
    0.0000   -0.5500    0.0000 C   0  0  0  0  0  0           0  0  0
   -0.0500    0.8708    0.0000 S   0  0  3  0  0  0           0  0  0
    0.3292   -1.4500    0.0000 N   0  0  3  0  0  0           0  0  0
    0.3792    0.1750    0.0000 N   0  0  0  0  0  0           0  0  0
   -0.4875    1.5667    0.0000 C   0  0  0  0  0  0           0  0  0
   -0.8208   -0.5833    0.0000 N   0  0  0  0  0  0           0  0  0
   -0.3500   -1.9125    0.0000 C   0  0  0  0  0  0           0  0  0
   -1.0417   -1.3792    0.0000 N   0  0  0  0  0  0           0  0  0
    0.4500   -3.0833    0.0000 N   0  0  0  0  0  0           0  0  0
    1.0667   -1.8083    0.0000 C   0  0  0  0  0  0           0  0  0
   -1.3083    1.5417    0.0000 C   0  0  0  0  0  0           0  0  0
   -0.1000    2.2917    0.0000 C   0  0  0  0  0  0           0  0  0
   -0.2875   -2.7333    0.0000 C   0  0  0  0  0  0           0  0  0
   -1.7417    2.2375    0.0000 C   0  0  0  0  0  0           0  0  0
   -1.3583    2.9625    0.0000 C   0  0  0  0  0  0           0  0  0
    0.6417    1.3083    0.0000 O   0  0  0  0  0  0           0  0  0
   -0.7458    0.4375    0.0000 O   0  0  0  0  0  0           0  0  0
    1.1292   -2.6208    0.0000 C   0  0  0  0  0  0           0  0  0
   -0.5333    2.9917    0.0000 C   0  0  0  0  0  0           0  0  0
   -1.9208    0.9750    0.0000 S   0  0  0  0  0  0           0  0  0
   -1.7917    3.6542    0.0000 Cl  0  0  0  0  0  0           0  0  0
    1.7458   -1.3458    0.0000 C   0  0  0  0  0  0           0  0  0
   -0.1458    3.7125    0.0000 C   0  0  0  0  0  0           0  0  0
    1.8667   -2.9792    0.0000 C   0  0  0  0  0  0           0  0  0
    2.4792   -1.7000    0.0000 C   0  0  0  0  0  0           0  0  0
    2.5458   -2.5167    0.0000 C   0  0  0  0  0  0           0  0  0
  2  4  1  0     0  0
  3  1  1  0     0  0
  4  1  1  0     0  0
  5  2  1  0     0  0
  6  1  2  0     0  0
  7  3  1  0     0  0
  8  6  1  0     0  0
  9 13  2  0     0  0
 10  3  1  0     0  0
 11  5  1  0     0  0
 12  5  2  0     0  0
 13  7  1  0     0  0
 14 11  2  0     0  0
 15 19  2  0     0  0
 16  2  2  0     0  0
 17  2  2  0     0  0
 18 10  2  0     0  0
 19 12  1  0     0  0
 20 11  1  0     0  0
 21 15  1  0     0  0
 22 10  1  0     0  0
 23 19  1  0     0  0
 24 18  1  0     0  0
 25 22  2  0     0  0
 26 25  1  0     0  0
  8  7  2  0     0  0
  9 18  1  0     0  0
 26 24  2  0     0  0
 15 14  1  0     0  0
M  END
>  <prID>
90

>  <IDDB>
29434

>  <pIC50_HIV_Integrase>
5.075720714

>  <Q>
-0.324475615

>  <Activity_Integrase>
Inactive_Integrase

NA
NA
NA
NA
$$$$

  Accelrys05311914352D 1   1.00000     0.00000     0

 34 35  0     0  0            999 V2000
    3.4974   -8.8560    0.0000 C   0  0  1  0  0  0           0  0  0
    4.2141   -9.2672    0.0000 C   0  0  1  0  0  0           0  0  0
    2.7815   -9.2741    0.0000 O   0  0  0  0  0  0           0  0  0
    3.5085   -8.0309    0.0000 C   0  0  0  0  0  0           0  0  0
    4.9307   -8.8560    0.0000 O   0  0  0  0  0  0           0  0  0
    4.2141  -10.0931    0.0000 C   0  0  0  0  0  0           0  0  0
    2.0523   -8.8767    0.0000 C   0  0  0  0  0  0           0  0  0
    4.2404   -7.6411    0.0000 O   0  0  0  0  0  0           0  0  0
    2.7953   -7.6163    0.0000 O   0  0  0  0  0  0           0  0  0
    5.6585   -9.2451    0.0000 C   0  0  0  0  0  0           0  0  0
    3.4932  -10.4974    0.0000 O   0  0  0  0  0  0           0  0  0
    4.9307  -10.5112    0.0000 O   0  0  0  0  0  0           0  0  0
    1.3329   -9.2837    0.0000 C   0  0  0  0  0  0           0  0  0
    2.0634   -8.0509    0.0000 O   0  0  0  0  0  0           0  0  0
    6.3862   -8.8339    0.0000 C   0  0  0  0  0  0           0  0  0
    5.6585  -10.0668    0.0000 O   0  0  0  0  0  0           0  0  0
    0.6150   -8.8740    0.0000 C   0  0  0  0  0  0           0  0  0
    7.1056   -9.2478    0.0000 C   0  0  0  0  0  0           0  0  0
   -0.1030   -9.2837    0.0000 C   0  0  0  0  0  0           0  0  0
    7.8216   -8.8408    0.0000 C   0  0  0  0  0  0           0  0  0
   -0.0850  -10.1268    0.0000 C   0  0  0  0  0  0           0  0  0
   -0.8266   -8.8878    0.0000 C   0  0  0  0  0  0           0  0  0
    7.7995   -8.0018    0.0000 C   0  0  0  0  0  0           0  0  0
    8.5367   -9.2367    0.0000 C   0  0  0  0  0  0           0  0  0
   -0.8086  -10.5671    0.0000 C   0  0  0  0  0  0           0  0  0
   -1.5280   -9.3238    0.0000 C   0  0  0  0  0  0           0  0  0
    8.5189   -7.5699    0.0000 C   0  0  0  0  0  0           0  0  0
    9.2341   -8.8049    0.0000 C   0  0  0  0  0  0           0  0  0
   -1.5280  -10.1379    0.0000 C   0  0  0  0  0  0           0  0  0
   -0.8086  -11.3930    0.0000 O   0  0  0  0  0  0           0  0  0
    9.2341   -7.9908    0.0000 C   0  0  0  0  0  0           0  0  0
    8.5189   -6.7441    0.0000 O   0  0  0  0  0  0           0  0  0
   -2.2607  -10.5277    0.0000 O   0  0  0  0  0  0           0  0  0
    9.9701   -7.6010    0.0000 O   0  0  0  0  0  0           0  0  0
  1  2  1  0     0  0
  1  3  1  1     0  0
  1  4  1  0     0  0
  2  5  1  1     0  0
  2  6  1  0     0  0
  3  7  1  0     0  0
  4  8  1  0     0  0
  4  9  2  0     0  0
  5 10  1  0     0  0
  6 11  1  0     0  0
  6 12  2  0     0  0
  7 13  1  0     0  0
  7 14  2  0     0  0
 10 15  1  0     0  0
 10 16  2  0     0  0
 13 17  2  0     0  0
 15 18  2  0     0  0
 17 19  1  0     0  0
 18 20  1  0     0  0
 19 21  1  0     0  0
 19 22  2  0     0  0
 20 23  1  0     0  0
 20 24  2  0     0  0
 21 25  2  0     0  0
 22 26  1  0     0  0
 23 27  2  0     0  0
 24 28  1  0     0  0
 25 29  1  0     0  0
 25 30  1  0     0  0
 27 31  1  0     0  0
 27 32  1  0     0  0
 29 33  1  0     0  0
 31 34  1  0     0  0
 26 29  2  0     0  0
 28 31  2  0     0  0
M  END
>  <prID>
91

>  <IDDB>
29768

>  <pIC50_HIV_Integrase>
6.1989700045

>  <Q>
-4.411865107

>  <Activity_Integrase>
Active_Integrase

NA
NA
NA
NA
$$$$

  Accelrys05311914352D 1   1.00000     0.00000     0

 28 29  0     0  0            999 V2000
    3.2292   -1.4500    0.0000 S   0  0  3  0  0  0           0  0  0
   -3.2208    1.4458    0.0000 S   0  0  3  0  0  0           0  0  0
   -1.7958   -0.2083    0.0000 C   0  0  0  0  0  0           0  0  0
    1.7958    0.2042    0.0000 C   0  0  0  0  0  0           0  0  0
   -1.7958   -1.0375    0.0000 N   0  3  0  0  0  0           0  0  0
    1.7958    1.0333    0.0000 N   0  3  0  0  0  0           0  0  0
    2.5083   -0.2083    0.0000 C   0  0  0  0  0  0           0  0  0
   -2.5125    0.2042    0.0000 C   0  0  0  0  0  0           0  0  0
   -2.5125    1.0333    0.0000 C   0  0  0  0  0  0           0  0  0
    2.5083   -1.0375    0.0000 C   0  0  0  0  0  0           0  0  0
   -1.0750    0.2042    0.0000 C   0  0  0  0  0  0           0  0  0
    1.0792   -0.2083    0.0000 C   0  0  0  0  0  0           0  0  0
   -0.3625   -0.2083    0.0000 S   0  0  0  0  0  0           0  0  0
    0.3583    0.2042    0.0000 S   0  0  0  0  0  0           0  0  0
    3.6417   -0.7333    0.0000 O   0  0  0  0  0  0           0  0  0
    2.8125   -2.1708    0.0000 O   0  0  0  0  0  0           0  0  0
   -2.8167    2.1667    0.0000 O   0  0  0  0  0  0           0  0  0
   -3.6375    0.7292    0.0000 O   0  0  0  0  0  0           0  0  0
   -2.5833   -1.4583    0.0000 O   0  5  0  0  0  0           0  0  0
    1.0792    1.4458    0.0000 O   0  5  0  0  0  0           0  0  0
    2.5083    1.4458    0.0000 O   0  0  0  0  0  0           0  0  0
   -1.0583   -1.3333    0.0000 O   0  0  0  0  0  0           0  0  0
    3.9458   -1.8667    0.0000 N   0  0  0  0  0  0           0  0  0
   -3.9417    1.8625    0.0000 N   0  0  0  0  0  0           0  0  0
   -1.7958    1.4458    0.0000 C   0  0  0  0  0  0           0  0  0
    1.7958   -1.4542    0.0000 C   0  0  0  0  0  0           0  0  0
    1.0792   -1.0375    0.0000 C   0  0  0  0  0  0           0  0  0
   -1.0750    1.0333    0.0000 C   0  0  0  0  0  0           0  0  0
  2  9  1  0     0  0
  3 11  2  0     0  0
  4  7  1  0     0  0
  5  3  1  0     0  0
  6  4  1  0     0  0
  7 10  2  0     0  0
  8  3  1  0     0  0
  9 25  1  0     0  0
 10  1  1  0     0  0
 11 13  1  0     0  0
 12 27  1  0     0  0
 13 14  1  0     0  0
 14 12  1  0     0  0
 15  1  2  0     0  0
 16  1  2  0     0  0
 17  2  2  0     0  0
 18  2  2  0     0  0
 19  5  1  0     0  0
 20  6  1  0     0  0
 21  6  2  0     0  0
 22  5  2  0     0  0
 23  1  1  0     0  0
 24  2  1  0     0  0
 25 28  2  0     0  0
 26 10  1  0     0  0
 27 26  2  0     0  0
 28 11  1  0     0  0
 12  4  2  0     0  0
  9  8  2  0     0  0
M  CHG  4   5   1   6   1  19  -1  20  -1
M  END
>  <prID>
92

>  <IDDB>
30183

>  <pIC50_HIV_Integrase>
2.912822188

>  <Q>
-1.236669197

>  <Activity_Integrase>
Inactive_Integrase

NA
NA
NA
NA
$$$$

  Accelrys05311914352D 1   1.00000     0.00000     0

 28 29  0     0  0            999 V2000
    3.0529   -3.1131    0.0000 C   0  0  3  0  0  0           0  0  0
    3.0640   -3.9364    0.0000 C   0  0  0  0  0  0           0  0  0
    3.7647   -2.6880    0.0000 N   0  0  0  0  0  0           0  0  0
    6.6317   -2.6452    0.0000 C   0  0  0  0  0  0           0  0  0
    4.4842   -3.0882    0.0000 C   0  0  0  0  0  0           0  0  0
    7.3512   -3.0454    0.0000 C   0  0  0  0  0  0           0  0  0
   10.2110   -3.0069    0.0000 C   0  0  0  0  0  0           0  0  0
    8.0594   -2.6224    0.0000 C   0  0  0  0  0  0           0  0  0
    5.9198   -3.0704    0.0000 N   0  0  0  0  0  0           0  0  0
   10.2300   -3.8351    0.0000 C   0  0  0  0  0  0           0  0  0
    2.3312   -2.7094    0.0000 C   0  0  0  0  0  0           0  0  0
    9.4951   -2.6046    0.0000 C   0  0  0  0  0  0           0  0  0
    3.7878   -4.3437    0.0000 O   0  0  0  0  0  0           0  0  0
    6.6163   -1.8149    0.0000 O   0  0  0  0  0  0           0  0  0
    4.4997   -3.9186    0.0000 O   0  0  0  0  0  0           0  0  0
    8.7832   -3.0297    0.0000 C   0  0  0  0  0  0           0  0  0
    9.5182   -4.2603    0.0000 C   0  0  0  0  0  0           0  0  0
    5.1961   -2.6630    0.0000 C   0  0  0  0  0  0           0  0  0
    2.3558   -4.3594    0.0000 O   0  0  0  0  0  0           0  0  0
   10.9229   -2.5818    0.0000 O   0  0  0  0  0  0           0  0  0
    8.7944   -3.8530    0.0000 C   0  0  0  0  0  0           0  0  0
    1.6229   -3.1324    0.0000 C   0  0  0  0  0  0           0  0  0
   10.9459   -4.2375    0.0000 O   0  0  0  0  0  0           0  0  0
    0.8978   -2.7308    0.0000 C   0  0  0  0  0  0           0  0  0
    1.6327   -3.9613    0.0000 C   0  0  0  0  0  0           0  0  0
    0.1894   -3.1538    0.0000 C   0  0  0  0  0  0           0  0  0
    0.9244   -4.3844    0.0000 C   0  0  0  0  0  0           0  0  0
    0.1992   -3.9827    0.0000 C   0  0  0  0  0  0           0  0  0
  2  1  1  0     0  0
  3  1  1  0     0  0
  4  9  1  0     0  0
  5  3  1  0     0  0
  6  4  1  0     0  0
  7 12  1  0     0  0
  8  6  2  0     0  0
  9 18  1  0     0  0
 10 17  1  0     0  0
 11  1  1  0     0  0
 12 16  2  0     0  0
 13  2  2  0     0  0
 14  4  2  0     0  0
 15  5  2  0     0  0
 16  8  1  0     0  0
 17 21  2  0     0  0
 18  5  1  0     0  0
 19  2  1  0     0  0
 20  7  1  0     0  0
 21 16  1  0     0  0
 22 11  1  0     0  0
 23 10  1  0     0  0
 24 22  2  0     0  0
 25 22  1  0     0  0
 26 24  1  0     0  0
 27 25  2  0     0  0
 28 27  1  0     0  0
 28 26  2  0     0  0
 10  7  2  0     0  0
M  END
>  <prID>
93

>  <IDDB>
30245

>  <pIC50_HIV_Integrase>
4.494850022

>  <Q>
-3.138376679

>  <Activity_Integrase>
Inactive_Integrase

NA
NA
NA
NA
$$$$

  Accelrys05311914352D 1   1.00000     0.00000     0

 14 14  0     0  0            999 V2000
   -0.9250    0.4167    0.0000 C   0  0  0  0  0  0           0  0  0
   -0.7208   -0.5625    0.0000 C   0  0  0  0  0  0           0  0  0
   -0.1833    1.0833    0.0000 C   0  0  0  0  0  0           0  0  0
   -1.8792    0.7250    0.0000 C   0  0  0  0  0  0           0  0  0
    0.2333   -0.8708    0.0000 C   0  0  0  0  0  0           0  0  0
    1.0417   -0.2833    0.0000 O   0  0  0  0  0  0           0  0  0
    0.5417   -1.8208    0.0000 C   0  0  0  0  0  0           0  0  0
    1.8500   -0.8708    0.0000 C   0  0  0  0  0  0           0  0  0
    1.5417   -1.8208    0.0000 C   0  0  0  0  0  0           0  0  0
    0.7667    0.7750    0.0000 O   0  0  0  0  0  0           0  0  0
   -2.0833    1.7000    0.0000 O   0  0  0  0  0  0           0  0  0
   -2.6208    0.0542    0.0000 O   0  0  0  0  0  0           0  0  0
   -0.3917    2.0625    0.0000 O   0  0  0  0  0  0           0  0  0
    2.8000   -0.5625    0.0000 C   0  0  0  0  0  0           0  0  0
  2  1  2  0     0  0
  3  1  1  0     0  0
  4  1  1  0     0  0
  5  2  1  0     0  0
  6  5  1  0     0  0
  7  5  2  0     0  0
  8  6  1  0     0  0
  9  7  1  0     0  0
 10  3  2  0     0  0
 11  4  2  0     0  0
 12  4  1  0     0  0
 13  3  1  0     0  0
 14  8  1  0     0  0
  9  8  2  0     0  0
M  END
>  <prID>
94

>  <IDDB>
30400

>  <pIC50_HIV_Integrase>
4.63380312

>  <Q>
-1.725302259

>  <Activity_Integrase>
Inactive_Integrase

NA
NA
NA
NA
$$$$

  Accelrys05311914352D 1   1.00000     0.00000     0

 27 29  0     0  0            999 V2000
    5.3532   -6.0866    0.0000 N   0  0  3  0  0  0           0  0  0
    6.6908   -4.2624    0.0000 S   0  0  3  0  0  0           0  0  0
    6.1798   -5.8145    0.0000 C   0  0  0  0  0  0           0  0  0
    5.3608   -6.9063    0.0000 C   0  0  0  0  0  0           0  0  0
    3.9310   -6.0911    0.0000 C   0  0  0  0  0  0           0  0  0
    6.4333   -5.0333    0.0000 N   0  0  0  0  0  0           0  0  0
    7.4002   -4.6754    0.0000 C   0  0  0  0  0  0           0  0  0
    6.2887   -7.1379    0.0000 N   0  0  0  0  0  0           0  0  0
    4.6401   -5.6801    0.0000 C   0  0  0  0  0  0           0  0  0
    6.7112   -6.4388    0.0000 N   0  0  0  0  0  0           0  0  0
    4.6495   -7.3210    0.0000 C   0  0  0  0  0  0           0  0  0
    3.2179   -5.6846    0.0000 C   0  0  3  0  0  0           0  0  0
    3.9364   -6.9145    0.0000 C   0  0  0  0  0  0           0  0  0
    8.1119   -4.2673    0.0000 C   0  0  0  0  0  0           0  0  0
    7.3979   -5.4967    0.0000 C   0  0  0  0  0  0           0  0  0
    8.8245   -4.6853    0.0000 C   0  0  0  0  0  0           0  0  0
    8.8182   -5.5056    0.0000 C   0  0  0  0  0  0           0  0  0
    5.8708   -3.8375    0.0000 O   0  0  0  0  0  0           0  0  0
    7.0625   -3.4666    0.0000 O   0  0  0  0  0  0           0  0  0
    8.1024   -5.9129    0.0000 C   0  0  0  0  0  0           0  0  0
    2.8093   -6.4013    0.0000 F   0  0  0  0  0  0           0  0  0
    2.5048   -5.2781    0.0000 F   0  0  0  0  0  0           0  0  0
    3.6244   -4.9715    0.0000 F   0  0  0  0  0  0           0  0  0
    4.6529   -8.1479    0.0000 Cl  0  0  0  0  0  0           0  0  0
    8.1182   -3.4468    0.0000 S   0  0  0  0  0  0           0  0  0
    9.5266   -5.9228    0.0000 Cl  0  0  0  0  0  0           0  0  0
    8.1010   -6.7302    0.0000 C   0  0  0  0  0  0           0  0  0
  2  6  1  0     0  0
  3  1  1  0     0  0
  4  1  1  0     0  0
  5  9  2  0     0  0
  6  3  1  0     0  0
  7  2  1  0     0  0
  8  4  2  0     0  0
  9  1  1  0     0  0
 10  3  2  0     0  0
 11  4  1  0     0  0
 12  5  1  0     0  0
 13  5  1  0     0  0
 14  7  1  0     0  0
 15  7  2  0     0  0
 16 14  2  0     0  0
 17 20  2  0     0  0
 18  2  2  0     0  0
 19  2  2  0     0  0
 20 15  1  0     0  0
 21 12  1  0     0  0
 22 12  1  0     0  0
 23 12  1  0     0  0
 24 11  1  0     0  0
 25 14  1  0     0  0
 26 17  1  0     0  0
 27 20  1  0     0  0
  8 10  1  0     0  0
 13 11  2  0     0  0
 17 16  1  0     0  0
M  END
>  <prID>
95

>  <IDDB>
30446

>  <pIC50_HIV_Integrase>
4.677780705

>  <Q>
-9.349331519

>  <Activity_Integrase>
Inactive_Integrase

NA
NA
NA
NA
$$$$

  Accelrys05311914352D 1   1.00000     0.00000     0

 27 29  0     0  0            999 V2000
   -0.6125   -0.8375    0.0000 N   0  0  3  0  0  0           0  0  0
    1.4708   -0.4000    0.0000 S   0  0  3  0  0  0           0  0  0
    0.1750   -1.5500    0.0000 C   0  0  0  0  0  0           0  0  0
   -1.4792   -1.3375    0.0000 C   0  0  0  0  0  0           0  0  0
   -2.3417   -0.8375    0.0000 C   0  0  0  0  0  0           0  0  0
    1.1583   -1.3500    0.0000 N   0  0  0  0  0  0           0  0  0
    1.7875    0.5458    0.0000 C   0  0  0  0  0  0           0  0  0
   -1.1625   -2.4625    0.0000 N   0  0  0  0  0  0           0  0  0
   -0.1625   -2.4917    0.0000 N   0  0  0  0  0  0           0  0  0
   -3.2083   -1.3375    0.0000 C   0  0  3  0  0  0           0  0  0
   -0.6125    0.1625    0.0000 C   0  0  0  0  0  0           0  0  0
   -2.3417    0.1625    0.0000 C   0  0  0  0  0  0           0  0  0
    1.1250    1.2958    0.0000 C   0  0  0  0  0  0           0  0  0
    2.7667    0.7458    0.0000 C   0  0  0  0  0  0           0  0  0
   -1.4792    0.6625    0.0000 C   0  0  0  0  0  0           0  0  0
    1.4417    2.2417    0.0000 C   0  0  0  0  0  0           0  0  0
    2.4208    2.4417    0.0000 C   0  0  0  0  0  0           0  0  0
    0.5208   -0.0875    0.0000 O   0  0  0  0  0  0           0  0  0
    2.4208   -0.7167    0.0000 O   0  0  0  0  0  0           0  0  0
    3.0833    1.6958    0.0000 C   0  0  0  0  0  0           0  0  0
   -4.0792   -1.8375    0.0000 F   0  0  0  0  0  0           0  0  0
   -3.7083   -0.4750    0.0000 F   0  0  0  0  0  0           0  0  0
   -2.7083   -2.2042    0.0000 F   0  0  0  0  0  0           0  0  0
    0.1458    1.0958    0.0000 S   0  0  0  0  0  0           0  0  0
   -1.4792    1.6625    0.0000 Cl  0  0  0  0  0  0           0  0  0
    2.7375    3.3917    0.0000 Cl  0  0  0  0  0  0           0  0  0
    4.0625    1.8958    0.0000 C   0  0  0  0  0  0           0  0  0
  2  6  1  0     0  0
  3  1  1  0     0  0
  4  1  1  0     0  0
  5  4  1  0     0  0
  6  3  1  0     0  0
  7  2  1  0     0  0
  8  4  2  0     0  0
  9  3  2  0     0  0
 10  5  1  0     0  0
 11  1  1  0     0  0
 12 15  1  0     0  0
 13  7  1  0     0  0
 14  7  2  0     0  0
 15 11  2  0     0  0
 16 13  2  0     0  0
 17 20  2  0     0  0
 18  2  2  0     0  0
 19  2  2  0     0  0
 20 14  1  0     0  0
 21 10  1  0     0  0
 22 10  1  0     0  0
 23 10  1  0     0  0
 24 13  1  0     0  0
 25 15  1  0     0  0
 26 17  1  0     0  0
 27 20  1  0     0  0
  9  8  1  0     0  0
 12  5  2  0     0  0
 17 16  1  0     0  0
M  END
>  <prID>
96

>  <IDDB>
30447

>  <pIC50_HIV_Integrase>
4.616184634

>  <Q>
-9.415901855

>  <Activity_Integrase>
Inactive_Integrase

NA
NA
NA
NA
$$$$

  Accelrys05311914352D 1   1.00000     0.00000     0

 25 27  0     0  0            999 V2000
    6.5400   -4.2744    0.0000 N   0  0  0  0  0  0           0  0  0
    7.0042   -3.5958    0.0000 C   0  0  0  0  0  0           0  0  0
    5.7476   -4.0429    0.0000 C   0  0  0  0  0  0           0  0  0
    5.7305   -3.2200    0.0000 N   0  0  0  0  0  0           0  0  0
    6.5009   -2.9470    0.0000 N   0  0  0  0  0  0           0  0  0
    4.2223   -4.0882    0.0000 N   0  0  0  0  0  0           0  0  0
    4.9297   -4.5045    0.0000 C   0  0  0  0  0  0           0  0  0
    4.9203   -5.3256    0.0000 C   0  0  0  0  0  0           0  0  0
    3.5054   -4.4931    0.0000 C   0  0  0  0  0  0           0  0  0
    3.4996   -5.3163    0.0000 C   0  0  0  0  0  0           0  0  0
    4.2071   -5.7326    0.0000 C   0  0  0  0  0  0           0  0  0
    2.7828   -5.7213    0.0000 Cl  0  0  0  0  0  0           0  0  0
    8.6496   -3.5718    0.0000 S   0  0  3  0  0  0           0  0  0
    9.4725   -3.5426    0.0000 C   0  0  0  0  0  0           0  0  0
    7.8299   -3.5984    0.0000 N   0  0  0  0  0  0           0  0  0
    9.8612   -2.8217    0.0000 C   0  0  0  0  0  0           0  0  0
    9.9085   -4.2436    0.0000 C   0  0  0  0  0  0           0  0  0
   10.6783   -2.7919    0.0000 C   0  0  0  0  0  0           0  0  0
   11.1150   -3.4870    0.0000 C   0  0  0  0  0  0           0  0  0
    8.6262   -2.7495    0.0000 O   0  0  0  0  0  0           0  0  0
    8.6819   -4.3921    0.0000 O   0  0  0  0  0  0           0  0  0
   10.7288   -4.2112    0.0000 C   0  0  0  0  0  0           0  0  0
    9.4252   -2.1208    0.0000 S   0  0  0  0  0  0           0  0  0
   11.9372   -3.4636    0.0000 Cl  0  0  0  0  0  0           0  0  0
   11.1623   -4.9088    0.0000 C   0  0  0  0  0  0           0  0  0
 10 11  2  0     0  0
  1  2  2  0     0  0
  3  1  1  0     0  0
  4  5  1  0     0  0
  5  2  1  0     0  0
  6  7  1  0     0  0
  7  3  1  0     0  0
  8  7  2  0     0  0
  9  6  2  0     0  0
 10  9  1  0     0  0
 11  8  1  0     0  0
 12 10  1  0     0  0
  4  3  2  0     0  0
 14 13  1  0     0  0
 15 13  1  0     0  0
 16 14  1  0     0  0
 17 14  2  0     0  0
 18 16  2  0     0  0
 19 22  2  0     0  0
 20 13  2  0     0  0
 21 13  2  0     0  0
 22 17  1  0     0  0
 23 16  1  0     0  0
 24 19  1  0     0  0
 25 22  1  0     0  0
 19 18  1  0     0  0
 15  2  1  0     0  0
M  END
>  <prID>
97

>  <IDDB>
30450

>  <pIC50_HIV_Integrase>
4.987162775

>  <Q>
-2.099347067

>  <Activity_Integrase>
Inactive_Integrase

NA
NA
NA
NA
$$$$

  Accelrys05311914352D 1   1.00000     0.00000     0

 25 27  0     0  0            999 V2000
    9.1420  -10.2111    0.0000 S   0  0  3  0  0  0           0  0  0
    7.3715  -10.2065    0.0000 C   0  0  0  0  0  0           0  0  0
    6.9048   -9.5340    0.0000 N   0  0  0  0  0  0           0  0  0
    6.1204   -9.7736    0.0000 C   0  0  0  0  0  0           0  0  0
    9.9629  -10.2046    0.0000 C   0  0  0  0  0  0           0  0  0
    6.1086  -10.5968    0.0000 N   0  0  3  0  0  0           0  0  0
    8.3219  -10.2168    0.0000 N   0  0  0  0  0  0           0  0  0
    6.8828  -10.8610    0.0000 N   0  0  0  0  0  0           0  0  0
   10.3697   -9.4930    0.0000 C   0  0  0  0  0  0           0  0  0
   10.3810  -10.9138    0.0000 C   0  0  0  0  0  0           0  0  0
   11.1905   -9.4864    0.0000 C   0  0  0  0  0  0           0  0  0
   11.6086  -10.1914    0.0000 C   0  0  0  0  0  0           0  0  0
    9.1486  -11.0319    0.0000 O   0  0  0  0  0  0           0  0  0
    9.1355   -9.3903    0.0000 O   0  0  0  0  0  0           0  0  0
    5.4625   -9.2828    0.0000 N   0  0  0  0  0  0           0  0  0
   11.2018  -10.9072    0.0000 C   0  0  0  0  0  0           0  0  0
    5.3815  -10.9814    0.0000 C   0  0  0  0  0  0           0  0  0
    9.9515   -8.7838    0.0000 S   0  0  0  0  0  0           0  0  0
   12.4253  -10.1849    0.0000 Cl  0  0  0  0  0  0           0  0  0
   11.6200  -11.6123    0.0000 C   0  0  0  0  0  0           0  0  0
    4.6833  -10.5488    0.0000 C   0  0  0  0  0  0           0  0  0
    5.3559  -11.8011    0.0000 C   0  0  0  0  0  0           0  0  0
    4.6297  -12.1914    0.0000 C   0  0  0  0  0  0           0  0  0
    3.9596  -10.9359    0.0000 C   0  0  0  0  0  0           0  0  0
    3.9315  -11.7589    0.0000 C   0  0  0  0  0  0           0  0  0
  2  7  1  0     0  0
  3  2  2  0     0  0
  4  3  1  0     0  0
  5  1  1  0     0  0
  6  8  1  0     0  0
  7  1  1  0     0  0
  8  2  1  0     0  0
  9  5  2  0     0  0
 10  5  1  0     0  0
 11  9  1  0     0  0
 12 16  1  0     0  0
 13  1  2  0     0  0
 14  1  2  0     0  0
 15  4  2  0     0  0
 16 10  2  0     0  0
 17  6  1  0     0  0
 18  9  1  0     0  0
 19 12  1  0     0  0
 20 16  1  0     0  0
 21 17  1  0     0  0
 22 17  2  0     0  0
 23 22  1  0     0  0
 24 21  2  0     0  0
 25 23  2  0     0  0
 12 11  2  0     0  0
  4  6  1  0     0  0
 25 24  1  0     0  0
M  END
>  <prID>
98

>  <IDDB>
30451

>  <pIC50_HIV_Integrase>
4.882728704

>  <Q>
-1.519666531

>  <Activity_Integrase>
Inactive_Integrase

NA
NA
NA
NA
$$$$

  Accelrys05311914352D 1   1.00000     0.00000     0

 25 27  0     0  0            999 V2000
    5.6555   -4.7616    0.0000 S   0  0  3  0  0  0           0  0  0
    8.3778   -4.2014    0.0000 N   0  0  3  0  0  0           0  0  0
    7.1246   -4.6217    0.0000 C   0  0  0  0  0  0           0  0  0
    7.1110   -3.8032    0.0000 N   0  0  0  0  0  0           0  0  0
    7.8878   -3.5399    0.0000 C   0  0  0  0  0  0           0  0  0
    4.9522   -4.3383    0.0000 C   0  0  0  0  0  0           0  0  0
    6.3590   -5.1848    0.0000 N   0  0  0  0  0  0           0  0  0
    7.9034   -4.8678    0.0000 N   0  0  0  0  0  0           0  0  0
    4.9640   -3.5187    0.0000 C   0  0  0  0  0  0           0  0  0
    4.2313   -4.7361    0.0000 C   0  0  0  0  0  0           0  0  0
    9.2002   -4.1895    0.0000 C   0  0  0  0  0  0           0  0  0
    4.2607   -3.0954    0.0000 C   0  0  0  0  0  0           0  0  0
    3.5421   -3.4896    0.0000 C   0  0  0  0  0  0           0  0  0
    5.2322   -5.4648    0.0000 O   0  0  0  0  0  0           0  0  0
    6.0788   -4.0583    0.0000 O   0  0  0  0  0  0           0  0  0
    8.1355   -2.7573    0.0000 N   0  0  0  0  0  0           0  0  0
    3.5281   -4.3128    0.0000 C   0  0  0  0  0  0           0  0  0
    9.6048   -3.4747    0.0000 N   0  0  0  0  0  0           0  0  0
    5.6848   -3.1210    0.0000 S   0  0  0  0  0  0           0  0  0
    2.8423   -3.0685    0.0000 Cl  0  0  0  0  0  0           0  0  0
    9.6164   -4.8962    0.0000 C   0  0  0  0  0  0           0  0  0
    2.8094   -4.7070    0.0000 C   0  0  0  0  0  0           0  0  0
   10.4255   -3.4666    0.0000 C   0  0  0  0  0  0           0  0  0
   10.4408   -4.8896    0.0000 C   0  0  0  0  0  0           0  0  0
   10.8454   -4.1749    0.0000 C   0  0  0  0  0  0           0  0  0
  2  8  1  0     0  0
  3  7  1  0     0  0
  4  3  2  0     0  0
  5  4  1  0     0  0
  6  1  1  0     0  0
  7  1  1  0     0  0
  8  3  1  0     0  0
  9  6  2  0     0  0
 10  6  1  0     0  0
 11  2  1  0     0  0
 12  9  1  0     0  0
 13 17  1  0     0  0
 14  1  2  0     0  0
 15  1  2  0     0  0
 16  5  2  0     0  0
 17 10  2  0     0  0
 18 11  1  0     0  0
 19  9  1  0     0  0
 20 13  1  0     0  0
 21 11  2  0     0  0
 22 17  1  0     0  0
 23 18  2  0     0  0
 24 21  1  0     0  0
 25 23  1  0     0  0
 13 12  2  0     0  0
  5  2  1  0     0  0
 25 24  2  0     0  0
M  END
>  <prID>
99

>  <IDDB>
30452

>  <pIC50_HIV_Integrase>
4.640164518

>  <Q>
-1.796140951

>  <Activity_Integrase>
Inactive_Integrase

NA
NA
NA
NA
$$$$

  Accelrys05311914352D 1   1.00000     0.00000     0

 19 20  0     0  0            999 V2000
   -0.5500   -0.3667    0.0000 S   0  0  3  0  0  0           0  0  0
   -0.5500    0.6333    0.0000 C   0  0  0  0  0  0           0  0  0
   -0.5500   -1.3667    0.0000 N   0  0  0  0  0  0           0  0  0
    0.3167   -1.8667    0.0000 C   0  0  0  0  0  0           0  0  0
    0.3167    1.1333    0.0000 C   0  0  0  0  0  0           0  0  0
   -1.4167    1.1333    0.0000 C   0  0  0  0  0  0           0  0  0
    0.3167    2.1333    0.0000 C   0  0  0  0  0  0           0  0  0
    0.3167   -2.8667    0.0000 N   0  0  0  0  0  0           0  0  0
   -0.5500    2.6333    0.0000 C   0  0  0  0  0  0           0  0  0
   -1.5500   -0.3667    0.0000 O   0  0  0  0  0  0           0  0  0
    0.4500   -0.3667    0.0000 O   0  0  0  0  0  0           0  0  0
   -1.4167    2.1333    0.0000 C   0  0  0  0  0  0           0  0  0
    1.1833   -1.3667    0.0000 N   0  0  0  0  0  0           0  0  0
    1.1833    0.6333    0.0000 S   0  0  0  0  0  0           0  0  0
   -0.5500    3.6333    0.0000 Cl  0  0  0  0  0  0           0  0  0
    1.1833   -3.3667    0.0000 C   0  0  0  0  0  0           0  0  0
    2.0500   -2.8667    0.0000 C   0  0  0  0  0  0           0  0  0
    2.0500   -1.8667    0.0000 C   0  0  0  0  0  0           0  0  0
   -2.2833    2.6333    0.0000 C   0  0  0  0  0  0           0  0  0
  2  1  1  0     0  0
  3  1  1  0     0  0
  4  3  1  0     0  0
  5  2  2  0     0  0
  6  2  1  0     0  0
  7  5  1  0     0  0
  8  4  2  0     0  0
  9 12  1  0     0  0
 10  1  2  0     0  0
 11  1  2  0     0  0
 12  6  2  0     0  0
 13  4  1  0     0  0
 14  5  1  0     0  0
 15  9  1  0     0  0
 16  8  1  0     0  0
 17 16  1  0     0  0
 18 13  1  0     0  0
 19 12  1  0     0  0
 17 18  1  0     0  0
  9  7  2  0     0  0
M  END
>  <prID>
100

>  <IDDB>
30455

>  <pIC50_HIV_Integrase>
3.836838625

>  <Q>
-1.74169585

>  <Activity_Integrase>
Inactive_Integrase

NA
NA
NA
NA
$$$$

  Accelrys05311914352D 1   1.00000     0.00000     0

 37 39  0     0  0            999 V2000
    0.6750    0.4125    0.0000 C   0  0  2  0  0  0           0  0  0
   -0.7042   -0.3875    0.0000 C   0  0  1  0  0  0           0  0  0
    0.6750   -0.3917    0.0000 C   0  0  0  0  0  0           0  0  0
   -0.0208    0.8042    0.0000 C   0  0  0  0  0  0           0  0  0
   -0.0167   -0.7917    0.0000 C   0  0  1  0  0  0           0  0  0
   -0.7167    0.4083    0.0000 C   0  0  1  0  0  0           0  0  0
    1.3792    0.1333    0.0000 O   0  0  0  0  0  0           0  0  0
   -1.3958   -0.7917    0.0000 O   0  0  0  0  0  0           0  0  0
    2.1000    0.1333    0.0000 C   0  0  0  0  0  0           0  0  0
   -2.0875   -0.3958    0.0000 C   0  0  0  0  0  0           0  0  0
    1.1042    0.8917    0.0000 C   0  0  0  0  0  0           0  0  0
    2.7625    0.4958    0.0000 C   0  0  0  0  0  0           0  0  0
   -2.7750   -0.7958    0.0000 C   0  0  0  0  0  0           0  0  0
    4.7375    1.5833    0.0000 C   0  0  0  0  0  0           0  0  0
   -5.5375   -0.8042    0.0000 C   0  0  0  0  0  0           0  0  0
    3.4083    0.1083    0.0000 C   0  0  0  0  0  0           0  0  0
   -3.4708   -0.4000    0.0000 C   0  0  0  0  0  0           0  0  0
    5.3875    1.1875    0.0000 C   0  0  0  0  0  0           0  0  0
   -5.5417   -1.6000    0.0000 C   0  0  0  0  0  0           0  0  0
    4.0792    1.2167    0.0000 C   0  0  0  0  0  0           0  0  0
   -4.8458   -0.4042    0.0000 C   0  0  0  0  0  0           0  0  0
   -2.0917    0.4000    0.0000 O   0  0  0  0  0  0           0  0  0
    2.1292   -0.6542    0.0000 O   0  0  0  0  0  0           0  0  0
    1.8250    0.8917    0.0000 O   0  0  0  0  0  0           0  0  0
    4.0667    0.4708    0.0000 C   0  0  0  0  0  0           0  0  0
   -4.1583   -0.8000    0.0000 C   0  0  0  0  0  0           0  0  0
   -4.8458   -2.0000    0.0000 C   0  0  0  0  0  0           0  0  0
    5.3792    0.4375    0.0000 C   0  0  0  0  0  0           0  0  0
   -1.4000    0.8000    0.0000 O   0  0  0  0  0  0           0  0  0
   -0.0125   -1.5833    0.0000 O   0  0  0  0  0  0           0  0  0
    4.7583    2.3833    0.0000 O   0  0  0  0  0  0           0  0  0
   -6.2125   -0.4042    0.0000 O   0  0  0  0  0  0           0  0  0
    4.7167    0.0750    0.0000 C   0  0  0  0  0  0           0  0  0
   -4.1583   -1.6000    0.0000 C   0  0  0  0  0  0           0  0  0
    6.0500    1.5542    0.0000 O   0  0  0  0  0  0           0  0  0
   -6.2208   -2.0000    0.0000 O   0  0  0  0  0  0           0  0  0
    0.9000    1.5042    0.0000 C   0  0  0  0  0  0           0  0  0
  2  5  1  0     0  0
  3  1  1  0     0  0
  4  1  1  0     0  0
  5  3  1  0     0  0
  6  4  1  0     0  0
  1  7  1  6     0  0
  2  8  1  6     0  0
  9  7  1  0     0  0
 10  8  1  0     0  0
  1 11  1  1     0  0
 12  9  1  0     0  0
 13 10  1  0     0  0
 14 20  2  0     0  0
 15 21  1  0     0  0
 16 12  2  0     0  0
 17 13  2  0     0  0
 18 28  2  0     0  0
 19 27  1  0     0  0
 20 25  1  0     0  0
 21 26  2  0     0  0
 22 10  2  0     0  0
 23  9  2  0     0  0
 24 11  2  0     0  0
 25 16  1  0     0  0
 26 17  1  0     0  0
 27 34  2  0     0  0
 28 33  1  0     0  0
  6 29  1  6     0  0
  5 30  1  1     0  0
 31 14  1  0     0  0
 32 15  1  0     0  0
 33 25  2  0     0  0
 34 26  1  0     0  0
 35 18  1  0     0  0
 36 19  1  0     0  0
 37 11  1  0     0  0
  2  6  1  0     0  0
 18 14  1  0     0  0
 19 15  2  0     0  0
M  END
>  <prID>
101

>  <IDDB>
30564

>  <pIC50_HIV_Integrase>
4.238072162

>  <Q>
-5.406091056

>  <Activity_Integrase>
Inactive_Integrase

NA
NA
NA
NA
$$$$

  Accelrys05311914352D 1   1.00000     0.00000     0

 23 24  0     0  0            999 V2000
    5.0333   -1.6834    0.0000 C   0  0  0  0  0  0           0  0  0
    8.6014   -2.9104    0.0000 C   0  0  0  0  0  0           0  0  0
    4.3084   -2.1000    0.0000 C   0  0  0  0  0  0           0  0  0
    8.5967   -2.0872    0.0000 C   0  0  0  0  0  0           0  0  0
    5.0333   -0.8542    0.0000 C   0  0  0  0  0  0           0  0  0
    9.3199   -3.3199    0.0000 C   0  0  0  0  0  0           0  0  0
    4.3084   -2.9250    0.0000 C   0  0  0  0  0  0           0  0  0
    7.8740   -1.6706    0.0000 C   0  0  0  0  0  0           0  0  0
    5.7458   -2.1000    0.0000 C   0  0  0  0  0  0           0  0  0
    7.8862   -3.3300    0.0000 C   0  0  0  0  0  0           0  0  0
    7.1699   -2.9242    0.0000 C   0  0  0  0  0  0           0  0  0
    5.7458   -2.9250    0.0000 C   0  0  0  0  0  0           0  0  0
    5.0333   -3.3375    0.0000 C   0  0  0  0  0  0           0  0  0
    7.1589   -2.0902    0.0000 C   0  0  0  0  0  0           0  0  0
    4.3084   -0.4417    0.0000 O   0  0  0  0  0  0           0  0  0
    9.3288   -4.1503    0.0000 O   0  0  0  0  0  0           0  0  0
    6.4584   -3.3416    0.0000 C   0  0  0  0  0  0           0  0  0
    9.3118   -1.6676    0.0000 O   0  0  0  0  0  0           0  0  0
    3.5917   -1.6834    0.0000 O   0  0  0  0  0  0           0  0  0
   10.0350   -2.9003    0.0000 O   0  0  0  0  0  0           0  0  0
    5.7458   -0.4417    0.0000 O   0  0  0  0  0  0           0  0  0
    7.8708   -0.8416    0.0000 C   0  0  0  0  0  0           0  0  0
    3.5917   -3.3375    0.0000 C   0  0  0  0  0  0           0  0  0
  2 10  1  0     0  0
  3  1  1  0     0  0
  4  8  1  0     0  0
  5  1  1  0     0  0
  6  2  1  0     0  0
  7  3  2  0     0  0
  8 14  2  0     0  0
  9  1  2  0     0  0
 10 11  2  0     0  0
 11 17  1  0     0  0
 12  9  1  0     0  0
 13  7  1  0     0  0
 14 11  1  0     0  0
 15  5  2  0     0  0
 16  6  2  0     0  0
 17 12  1  0     0  0
 18  4  1  0     0  0
 19  3  1  0     0  0
 20  6  1  0     0  0
 21  5  1  0     0  0
 22  8  1  0     0  0
 23  7  1  0     0  0
 13 12  2  0     0  0
  4  2  2  0     0  0
M  END
>  <prID>
102

>  <IDDB>
30652

>  <pIC50_HIV_Integrase>
6.045757491

>  <Q>
-2.644010762

>  <Activity_Integrase>
Active_Integrase

NA
NA
NA
NA
$$$$

  Accelrys05311914352D 1   1.00000     0.00000     0

 21 22  0     0  0            999 V2000
    7.1824   -3.8946    0.0000 C   0  0  0  0  0  0           0  0  0
    7.9001   -4.3125    0.0000 C   0  0  0  0  0  0           0  0  0
    8.6130   -3.8989    0.0000 C   0  0  0  0  0  0           0  0  0
    6.4623   -4.2990    0.0000 C   0  0  0  0  0  0           0  0  0
    7.1859   -3.0641    0.0000 C   0  0  0  0  0  0           0  0  0
    3.6199   -2.6350    0.0000 C   0  0  0  0  0  0           0  0  0
    8.6190   -3.0812    0.0000 C   0  0  0  0  0  0           0  0  0
    2.8997   -3.0394    0.0000 C   0  0  0  0  0  0           0  0  0
    4.3294   -3.0519    0.0000 C   0  0  0  0  0  0           0  0  0
    7.9055   -2.6638    0.0000 C   0  0  0  0  0  0           0  0  0
    6.4635   -5.1258    0.0000 O   0  0  0  0  0  0           0  0  0
    5.7570   -3.8826    0.0000 C   0  0  0  0  0  0           0  0  0
    2.9010   -3.8663    0.0000 C   0  0  0  0  0  0           0  0  0
    9.3303   -4.3209    0.0000 O   0  0  0  0  0  0           0  0  0
    7.8890   -5.1380    0.0000 O   0  0  0  0  0  0           0  0  0
    4.3264   -3.8784    0.0000 C   0  0  0  0  0  0           0  0  0
    3.6191   -1.8040    0.0000 O   0  0  0  0  0  0           0  0  0
    5.0318   -4.2948    0.0000 C   0  0  0  0  0  0           0  0  0
    3.6063   -4.2827    0.0000 C   0  0  0  0  0  0           0  0  0
    9.3319   -2.6676    0.0000 O   0  0  0  0  0  0           0  0  0
    2.1944   -2.6230    0.0000 O   0  0  0  0  0  0           0  0  0
  2  1  2  0     0  0
  3  2  1  0     0  0
  4  1  1  0     0  0
  5  1  1  0     0  0
  6  9  1  0     0  0
  7 10  1  0     0  0
  8 13  1  0     0  0
  9 16  2  0     0  0
 10  5  2  0     0  0
 11  4  2  0     0  0
 12  4  1  0     0  0
 13 19  2  0     0  0
 14  3  1  0     0  0
 15  2  1  0     0  0
 16 18  1  0     0  0
 17  6  1  0     0  0
 18 12  1  0     0  0
 19 16  1  0     0  0
 20  7  1  0     0  0
 21  8  1  0     0  0
  7  3  2  0     0  0
  8  6  2  0     0  0
M  END
>  <prID>
103

>  <IDDB>
31252

>  <pIC50_HIV_Integrase>
6

>  <Q>
-3.237528761

>  <Activity_Integrase>
Inactive_Integrase

NA
NA
NA
NA
$$$$

  Accelrys05311914352D 1   1.00000     0.00000     0

 18 19  0     0  0            999 V2000
   -0.9917    0.5208    0.0000 C   0  0  0  0  0  0           0  0  0
   -0.1500   -0.0167    0.0000 C   0  0  0  0  0  0           0  0  0
   -1.8833    0.0750    0.0000 C   0  0  0  0  0  0           0  0  0
   -0.2000   -1.0167    0.0000 C   0  0  0  0  0  0           0  0  0
    0.7375    0.4333    0.0000 C   0  0  0  0  0  0           0  0  0
   -0.9292    1.5208    0.0000 C   0  0  0  0  0  0           0  0  0
   -1.0917   -1.4792    0.0000 C   0  0  0  0  0  0           0  0  0
   -1.9292   -0.9250    0.0000 C   0  0  0  0  0  0           0  0  0
    1.5792   -0.1083    0.0000 C   0  0  3  0  0  0           0  0  0
    0.6375   -1.5583    0.0000 C   0  0  0  0  0  0           0  0  0
    2.4708    0.3542    0.0000 C   0  0  0  0  0  0           0  0  0
    1.5292   -1.1083    0.0000 C   0  0  0  0  0  0           0  0  0
   -1.7708    2.0625    0.0000 O   0  0  0  0  0  0           0  0  0
    2.5292    1.3417    0.0000 C   0  0  0  0  0  0           0  0  0
   -2.7083    0.6125    0.0000 O   0  0  0  0  0  0           0  0  0
   -0.0417    1.9833    0.0000 O   0  0  0  0  0  0           0  0  0
   -1.1417   -2.4667    0.0000 C   0  0  0  0  0  0           0  0  0
    3.3083   -0.2000    0.0000 C   0  0  0  0  0  0           0  0  0
  2  1  2  0     0  0
  3  1  1  0     0  0
  4  2  1  0     0  0
  5  2  1  0     0  0
  6  1  1  0     0  0
  7  8  1  0     0  0
  8  3  2  0     0  0
  9  5  1  0     0  0
 10  4  1  0     0  0
 11  9  1  0     0  0
 12  9  1  0     0  0
 13  6  2  0     0  0
 14 11  2  0     0  0
 15  3  1  0     0  0
 16  6  1  0     0  0
 17  7  1  0     0  0
 18 11  1  0     0  0
  7  4  2  0     0  0
 12 10  1  0     0  0
M  END
>  <prID>
104

>  <IDDB>
31255

>  <pIC50_HIV_Integrase>
4.588380294

>  <Q>
-2.056729442

>  <Activity_Integrase>
Inactive_Integrase

NA
NA
NA
NA
$$$$

  Accelrys05311914352D 1   1.00000     0.00000     0

 29 29  0     0  0            999 V2000
    3.0791   -1.7125    0.0000 P   0  0  3  0  0  0           0  0  0
    3.7042   -3.1208    0.0000 C   0  0  1  0  0  0           0  0  0
    3.7042   -2.2625    0.0000 O   0  0  0  0  0  0           0  0  0
    3.0167   -3.3917    0.0000 C   0  0  1  0  0  0           0  0  0
   -0.4750   -3.1000    0.0000 C   0  0  0  0  0  0           0  0  0
    2.3625   -3.1083    0.0000 C   0  0  0  0  0  0           0  0  0
    0.2291   -3.5084    0.0000 O   0  0  0  0  0  0           0  0  0
    4.4250   -3.4959    0.0000 C   0  0  0  0  0  0           0  0  0
    1.6541   -3.5167    0.0000 C   0  0  0  0  0  0           0  0  0
    2.4875   -2.3042    0.0000 O   0  0  0  0  0  0           0  0  0
   -0.4750   -2.2792    0.0000 C   0  0  0  0  0  0           0  0  0
    0.2375   -1.8708    0.0000 C   0  0  0  0  0  0           0  0  0
   -1.1917   -3.5125    0.0000 O   0  0  0  0  0  0           0  0  0
    7.3500   -3.0542    0.0000 C   0  0  0  0  0  0           0  0  0
    8.1667   -3.0292    0.0000 C   0  0  0  0  0  0           0  0  0
    6.6583   -3.4834    0.0000 C   0  0  0  0  0  0           0  0  0
    8.8875   -3.3917    0.0000 C   0  0  0  0  0  0           0  0  0
    2.4542   -1.1750    0.0000 O   0  0  0  0  0  0           0  0  0
    3.6208   -1.0917    0.0000 O   0  0  0  0  0  0           0  0  0
    5.8459   -3.4792    0.0000 C   0  0  0  0  0  0           0  0  0
    0.9417   -3.1000    0.0000 C   0  0  1  0  0  0           0  0  0
    9.7250   -3.0542    0.0000 C   0  0  0  0  0  0           0  0  0
    5.1250   -3.0750    0.0000 C   0  0  2  0  0  0           0  0  0
    2.5875   -4.1416    0.0000 O   0  0  0  0  0  0           0  0  0
    5.1166   -2.2667    0.0000 O   0  0  0  0  0  0           0  0  0
   11.4000   -2.9334    0.0000 O   0  0  0  0  0  0           0  0  0
    0.9459   -2.2833    0.0000 C   0  0  0  0  0  0           0  0  0
    3.6041   -3.9875    0.0000 C   0  0  0  0  0  0           0  0  0
   10.5375   -3.3667    0.0000 C   0  0  0  0  0  0           0  0  0
  2  3  1  6     0  0
  3  1  1  0     0  0
  4  2  1  0     0  0
  5  7  1  0     0  0
  6  4  1  0     0  0
  7 21  1  0     0  0
  8  2  1  0     0  0
  9  6  2  0     0  0
 10  1  2  0     0  0
 11 12  2  0     0  0
 12 27  1  0     0  0
 13  5  2  0     0  0
 14 16  1  0     0  0
 15 14  2  0     0  0
 16 20  2  0     0  0
 17 15  1  0     0  0
 18  1  1  0     0  0
 19  1  1  0     0  0
 20 23  1  0     0  0
 21  9  1  6     0  0
 22 17  2  0     0  0
 23  8  1  0     0  0
  4 24  1  6     0  0
 23 25  1  1     0  0
 26 29  1  0     0  0
 27 21  1  0     0  0
  4 28  1  1     0  0
 29 22  1  0     0  0
 11  5  1  0     0  0
M  END
>  <prID>
105

>  <IDDB>
31279

>  <pIC50_HIV_Integrase>
5.795880017

>  <Q>
-6.009293274

>  <Activity_Integrase>
Inactive_Integrase

NA
NA
NA
NA
$$$$

  Accelrys05311914352D 1   1.00000     0.00000     0

 25 28  0     0  0            999 V2000
   -1.0208   -0.3250    0.0000 C   0  0  0  0  0  0           0  0  0
    1.0375   -0.3083    0.0000 C   0  0  3  0  0  0           0  0  0
   -1.7417   -0.7542    0.0000 C   0  0  0  0  0  0           0  0  0
   -1.0208    0.5167    0.0000 C   0  0  0  0  0  0           0  0  0
   -0.0292   -0.7167    0.0000 S   0  0  0  0  0  0           0  0  0
    1.0375    0.5167    0.0000 C   0  0  0  0  0  0           0  0  0
   -1.7417    0.9375    0.0000 O   0  0  0  0  0  0           0  0  0
    1.7500    0.9333    0.0000 O   0  0  0  0  0  0           0  0  0
   -2.4667   -0.3250    0.0000 C   0  0  0  0  0  0           0  0  0
    1.7583   -0.7167    0.0000 C   0  0  3  0  0  0           0  0  0
    2.4750   -0.3000    0.0000 C   0  0  0  0  0  0           0  0  0
   -2.4667    0.5167    0.0000 C   0  0  0  0  0  0           0  0  0
    2.4708    0.5208    0.0000 C   0  0  0  0  0  0           0  0  0
   -0.3042    0.9250    0.0000 O   0  0  0  0  0  0           0  0  0
    0.3167    0.9250    0.0000 O   0  0  0  0  0  0           0  0  0
   -1.7417   -1.5792    0.0000 O   0  0  0  0  0  0           0  0  0
    1.7625   -1.5417    0.0000 O   0  0  0  0  0  0           0  0  0
   -3.2042   -0.7542    0.0000 C   0  0  0  0  0  0           0  0  0
    3.1875   -0.7125    0.0000 C   0  0  0  0  0  0           0  0  0
    3.1792    0.9417    0.0000 C   0  0  0  0  0  0           0  0  0
   -3.2042    0.9375    0.0000 C   0  0  0  0  0  0           0  0  0
    3.9000   -0.2958    0.0000 C   0  0  0  0  0  0           0  0  0
   -3.9417   -0.3250    0.0000 C   0  0  0  0  0  0           0  0  0
    3.9000    0.5292    0.0000 C   0  0  0  0  0  0           0  0  0
   -3.9417    0.5167    0.0000 C   0  0  0  0  0  0           0  0  0
  2  5  1  0     0  0
  3  1  2  0     0  0
  4  1  1  0     0  0
  5  1  1  0     0  0
  6  2  1  0     0  0
  7  4  1  0     0  0
  8  6  1  0     0  0
  9  3  1  0     0  0
 10  2  1  0     0  0
 11 10  1  0     0  0
 12  7  1  0     0  0
 13  8  1  0     0  0
 14  4  2  0     0  0
 15  6  2  0     0  0
 16  3  1  0     0  0
 17 10  1  0     0  0
 18  9  1  0     0  0
 19 11  2  0     0  0
 20 13  2  0     0  0
 21 12  1  0     0  0
 22 19  1  0     0  0
 23 18  2  0     0  0
 24 20  1  0     0  0
 25 21  2  0     0  0
 12  9  2  0     0  0
 25 23  1  0     0  0
 13 11  1  0     0  0
 24 22  2  0     0  0
M  END
>  <prID>
106

>  <IDDB>
31423

>  <pIC50_HIV_Integrase>
4

>  <Q>
-0.559886607

>  <Activity_Integrase>
Inactive_Integrase

NA
NA
NA
NA
$$$$

  Accelrys05311914352D 1   1.00000     0.00000     0

 34 39  0     0  0            999 V2000
   -1.1000    0.5417    0.0000 C   0  0  0  0  0  0           0  0  0
    0.9583    0.5625    0.0000 C   0  0  0  0  0  0           0  0  0
   -1.8208    0.1208    0.0000 C   0  0  0  0  0  0           0  0  0
    1.6792    0.1542    0.0000 C   0  0  0  0  0  0           0  0  0
   -0.1042    0.0583    0.0000 C   0  0  3  0  0  0           0  0  0
   -1.1000    1.3833    0.0000 C   0  0  0  0  0  0           0  0  0
    0.9583    1.3875    0.0000 C   0  0  0  0  0  0           0  0  0
   -1.8208    1.8042    0.0000 O   0  0  0  0  0  0           0  0  0
    1.6708    1.8000    0.0000 O   0  0  0  0  0  0           0  0  0
    2.3958    0.5667    0.0000 C   0  0  0  0  0  0           0  0  0
   -2.5458    0.5417    0.0000 C   0  0  0  0  0  0           0  0  0
   -0.1000   -0.9167    0.0000 C   0  0  0  0  0  0           0  0  0
   -2.5458    1.3833    0.0000 C   0  0  0  0  0  0           0  0  0
    2.3875    1.3958    0.0000 C   0  0  0  0  0  0           0  0  0
    0.7417   -1.3875    0.0000 C   0  0  0  0  0  0           0  0  0
    0.7417   -2.3583    0.0000 C   0  0  0  0  0  0           0  0  0
    0.2375    1.7958    0.0000 O   0  0  0  0  0  0           0  0  0
   -0.3833    1.7958    0.0000 O   0  0  0  0  0  0           0  0  0
   -0.1000   -2.8458    0.0000 C   0  0  0  0  0  0           0  0  0
    1.4875   -2.8833    0.0000 O   0  0  0  0  0  0           0  0  0
    0.0208   -3.6958    0.0000 O   0  0  0  0  0  0           0  0  0
    1.0542   -3.8208    0.0000 C   0  0  0  0  0  0           0  0  0
   -0.9417   -1.3958    0.0000 C   0  0  0  0  0  0           0  0  0
    1.6833   -0.6708    0.0000 O   0  0  0  0  0  0           0  0  0
   -1.8208   -0.7042    0.0000 O   0  0  0  0  0  0           0  0  0
   -0.9417   -2.3583    0.0000 C   0  0  0  0  0  0           0  0  0
   -3.2833    0.1208    0.0000 C   0  0  0  0  0  0           0  0  0
    3.1083    0.1625    0.0000 C   0  0  0  0  0  0           0  0  0
   -3.2833    1.8042    0.0000 C   0  0  0  0  0  0           0  0  0
    3.1000    1.8083    0.0000 C   0  0  0  0  0  0           0  0  0
   -4.0208    0.5417    0.0000 C   0  0  0  0  0  0           0  0  0
    3.8208    0.5792    0.0000 C   0  0  0  0  0  0           0  0  0
   -4.0208    1.3833    0.0000 C   0  0  0  0  0  0           0  0  0
    3.8167    1.4000    0.0000 C   0  0  0  0  0  0           0  0  0
  2  5  1  0     0  0
  3  1  2  0     0  0
  4  2  2  0     0  0
  5  1  1  0     0  0
  6  1  1  0     0  0
  7  2  1  0     0  0
  8  6  1  0     0  0
  9  7  1  0     0  0
 10  4  1  0     0  0
 11  3  1  0     0  0
 12  5  1  0     0  0
 13  8  1  0     0  0
 14  9  1  0     0  0
 15 12  1  0     0  0
 16 15  2  0     0  0
 17  7  2  0     0  0
 18  6  2  0     0  0
 19 26  2  0     0  0
 20 16  1  0     0  0
 21 19  1  0     0  0
 22 20  1  0     0  0
 23 12  2  0     0  0
 24  4  1  0     0  0
 25  3  1  0     0  0
 26 23  1  0     0  0
 27 11  1  0     0  0
 28 10  2  0     0  0
 29 13  1  0     0  0
 30 14  2  0     0  0
 31 27  2  0     0  0
 32 28  1  0     0  0
 33 29  2  0     0  0
 34 30  1  0     0  0
 13 11  2  0     0  0
 33 31  1  0     0  0
 19 16  1  0     0  0
 14 10  1  0     0  0
 22 21  1  0     0  0
 34 32  2  0     0  0
M  END
>  <prID>
107

>  <IDDB>
31425

>  <pIC50_HIV_Integrase>
4.744727495

>  <Q>
-1.441735813

>  <Activity_Integrase>
Inactive_Integrase

NA
NA
NA
NA
$$$$

  Accelrys05311914352D 1   1.00000     0.00000     0

 23 24  0     0  0            999 V2000
   -0.0708    0.9458    0.0000 S   0  0  3  0  0  0           0  0  0
   -1.9625   -0.1625    0.0000 C   0  0  0  0  0  0           0  0  0
    1.9625    0.1208    0.0000 C   0  0  0  0  0  0           0  0  0
   -2.7792   -0.0042    0.0000 N   0  3  0  0  0  0           0  0  0
    2.7542    0.3833    0.0000 N   0  3  0  0  0  0           0  0  0
   -1.4292    0.4625    0.0000 C   0  0  0  0  0  0           0  0  0
    1.3458    0.6625    0.0000 C   0  0  0  0  0  0           0  0  0
   -0.6125    0.3125    0.0000 C   0  0  0  0  0  0           0  0  0
    0.5625    0.4042    0.0000 C   0  0  0  0  0  0           0  0  0
   -1.6958   -0.9375    0.0000 C   0  0  0  0  0  0           0  0  0
    1.8000   -0.6875    0.0000 C   0  0  0  0  0  0           0  0  0
   -0.7042    1.4875    0.0000 O   0  0  0  0  0  0           0  0  0
    0.4708    1.5833    0.0000 O   0  0  0  0  0  0           0  0  0
   -3.3167   -0.6250    0.0000 O   0  5  0  0  0  0           0  0  0
   -3.0458    0.7708    0.0000 O   0  0  0  0  0  0           0  0  0
    2.9125    1.1958    0.0000 O   0  5  0  0  0  0           0  0  0
    3.3625   -0.1583    0.0000 O   0  0  0  0  0  0           0  0  0
   -0.3417   -0.4667    0.0000 C   0  0  0  0  0  0           0  0  0
    0.4083   -0.4042    0.0000 C   0  0  0  0  0  0           0  0  0
   -0.8750   -1.0917    0.0000 C   0  0  0  0  0  0           0  0  0
    1.0250   -0.9458    0.0000 C   0  0  0  0  0  0           0  0  0
   -2.2417   -1.5583    0.0000 F   0  0  0  0  0  0           0  0  0
    2.4167   -1.2417    0.0000 F   0  0  0  0  0  0           0  0  0
  2  6  1  0     0  0
  3  7  2  0     0  0
  4  2  1  0     0  0
  5  3  1  0     0  0
  6  8  2  0     0  0
  7  9  1  0     0  0
  8  1  1  0     0  0
  9  1  1  0     0  0
 10 20  1  0     0  0
 11 21  2  0     0  0
 12  1  2  0     0  0
 13  1  2  0     0  0
 14  4  1  0     0  0
 15  4  2  0     0  0
 16  5  1  0     0  0
 17  5  2  0     0  0
 18  8  1  0     0  0
 19  9  2  0     0  0
 20 18  2  0     0  0
 21 19  1  0     0  0
 22 10  1  0     0  0
 23 11  1  0     0  0
 11  3  1  0     0  0
 10  2  2  0     0  0
M  CHG  4   4   1   5   1  14  -1  16  -1
M  END
>  <prID>
108

>  <IDDB>
32343

>  <pIC50_HIV_Integrase>
4.3135439985

>  <Q>
-4.19976938

>  <Activity_Integrase>
Inactive_Integrase

NA
NA
NA
NA
$$$$

  Accelrys05311914352D 1   1.00000     0.00000     0

 27 28  0     0  0            999 V2000
   -0.0167    0.5958    0.0000 S   0  0  3  0  0  0           0  0  0
   -1.3417   -0.0083    0.0000 C   0  0  0  0  0  0           0  0  0
    1.3833    0.0500    0.0000 C   0  0  0  0  0  0           0  0  0
   -1.9625    0.3500    0.0000 C   0  0  0  0  0  0           0  0  0
    2.0000    0.4167    0.0000 C   0  0  0  0  0  0           0  0  0
   -1.9417    1.0125    0.0000 N   0  3  0  0  0  0           0  0  0
    1.9958    1.1333    0.0000 N   0  3  0  0  0  0           0  0  0
   -3.2125   -1.0875    0.0000 N   0  3  0  0  0  0           0  0  0
    3.2417   -1.0250    0.0000 N   0  3  0  0  0  0           0  0  0
    2.6250    0.0500    0.0000 C   0  0  0  0  0  0           0  0  0
   -2.5833   -0.0083    0.0000 C   0  0  0  0  0  0           0  0  0
    2.6250   -0.6708    0.0000 C   0  0  0  0  0  0           0  0  0
   -2.5833   -0.7333    0.0000 C   0  0  0  0  0  0           0  0  0
   -1.3417   -0.7333    0.0000 C   0  0  0  0  0  0           0  0  0
    1.3833   -0.6708    0.0000 C   0  0  0  0  0  0           0  0  0
   -0.6625    1.4167    0.0000 O   0  0  0  0  0  0           0  0  0
    0.4083    1.4208    0.0000 O   0  0  0  0  0  0           0  0  0
   -2.7042    1.3542    0.0000 O   0  5  0  0  0  0           0  0  0
    2.6167    1.4958    0.0000 O   0  5  0  0  0  0           0  0  0
    1.3750    1.4917    0.0000 O   0  0  0  0  0  0           0  0  0
   -1.3542    1.4333    0.0000 O   0  0  0  0  0  0           0  0  0
   -3.9125   -0.9000    0.0000 O   0  5  0  0  0  0           0  0  0
   -3.2167   -1.8083    0.0000 O   0  0  0  0  0  0           0  0  0
    3.2375   -1.7375    0.0000 O   0  5  0  0  0  0           0  0  0
    3.8583   -0.6667    0.0000 O   0  0  0  0  0  0           0  0  0
    2.0000   -1.0250    0.0000 C   0  0  0  0  0  0           0  0  0
   -1.9625   -1.0875    0.0000 C   0  0  0  0  0  0           0  0  0
  2  1  1  0     0  0
  3  1  1  0     0  0
  4  2  2  0     0  0
  5  3  2  0     0  0
  6  4  1  0     0  0
  7  5  1  0     0  0
  8 13  1  0     0  0
  9 12  1  0     0  0
 10  5  1  0     0  0
 11  4  1  0     0  0
 12 26  1  0     0  0
 13 27  1  0     0  0
 14  2  1  0     0  0
 15  3  1  0     0  0
 16  1  2  0     0  0
 17  1  2  0     0  0
 18  6  1  0     0  0
 19  7  1  0     0  0
 20  7  2  0     0  0
 21  6  2  0     0  0
 22  8  1  0     0  0
 23  8  2  0     0  0
 24  9  1  0     0  0
 25  9  2  0     0  0
 26 15  2  0     0  0
 27 14  2  0     0  0
 12 10  2  0     0  0
 13 11  2  0     0  0
M  CHG  8   6   1   7   1   8   1   9   1  18  -1  19  -1  22  -1  24  -1
M  END
>  <prID>
109

>  <IDDB>
32693

>  <pIC50_HIV_Integrase>
4.116338565

>  <Q>
0.240066001

>  <Activity_Integrase>
Inactive_Integrase

NA
NA
NA
NA
$$$$

  Accelrys05311914352D 1   1.00000     0.00000     0

 17 18  0     0  0            999 V2000
   -0.0208    0.6708    0.0000 S   0  0  3  0  0  0           0  0  0
   -0.7292    0.2542    0.0000 C   0  0  0  0  0  0           0  0  0
    0.7500    0.2542    0.0000 C   0  0  0  0  0  0           0  0  0
    0.6250    1.7208    0.0000 O   0  0  0  0  0  0           0  0  0
   -0.6875    1.7500    0.0000 O   0  0  0  0  0  0           0  0  0
   -0.7292   -0.5708    0.0000 C   0  0  0  0  0  0           0  0  0
   -1.4417    0.6708    0.0000 C   0  0  0  0  0  0           0  0  0
    0.7500   -0.5708    0.0000 C   0  0  0  0  0  0           0  0  0
    1.4583    0.6708    0.0000 C   0  0  0  0  0  0           0  0  0
   -2.1542   -0.5708    0.0000 C   0  0  0  0  0  0           0  0  0
    2.1750   -0.5708    0.0000 C   0  0  0  0  0  0           0  0  0
    1.4583   -0.9792    0.0000 C   0  0  0  0  0  0           0  0  0
    2.1750    0.2542    0.0000 C   0  0  0  0  0  0           0  0  0
   -1.4417   -0.9792    0.0000 C   0  0  0  0  0  0           0  0  0
   -2.1542    0.2542    0.0000 C   0  0  0  0  0  0           0  0  0
   -3.0292   -1.0917    0.0000 I   0  0  0  0  0  0           0  0  0
    2.9667   -1.1208    0.0000 I   0  0  0  0  0  0           0  0  0
  2  1  1  0     0  0
  3  1  1  0     0  0
  4  1  2  0     0  0
  5  1  2  0     0  0
  6  2  1  0     0  0
  7  2  2  0     0  0
  8  3  1  0     0  0
  9  3  2  0     0  0
 10 15  2  0     0  0
 11 13  2  0     0  0
 12  8  2  0     0  0
 13  9  1  0     0  0
 14  6  2  0     0  0
 15  7  1  0     0  0
 16 10  1  0     0  0
 17 11  1  0     0  0
 11 12  1  0     0  0
 10 14  1  0     0  0
M  END
>  <prID>
110

>  <IDDB>
32697

>  <pIC50_HIV_Integrase>
4.045757491

>  <Q>
3.927999101

>  <Activity_Integrase>
Inactive_Integrase

NA
NA
NA
NA
$$$$

  Accelrys05311914352D 1   1.00000     0.00000     0

 19 20  0     0  0            999 V2000
    0.1167    0.8708    0.0000 S   0  0  3  0  0  0           0  0  0
   -0.5875    0.4542    0.0000 C   0  0  0  0  0  0           0  0  0
   -0.5875   -0.3750    0.0000 C   0  0  0  0  0  0           0  0  0
   -0.0083   -0.9583    0.0000 N   0  3  0  0  0  0           0  0  0
   -1.3000   -0.7792    0.0000 C   0  0  0  0  0  0           0  0  0
   -1.3000    0.8708    0.0000 C   0  0  0  0  0  0           0  0  0
    0.7667    1.9208    0.0000 O   0  0  0  0  0  0           0  0  0
   -0.5458    1.9458    0.0000 O   0  0  0  0  0  0           0  0  0
    0.8917    0.4542    0.0000 C   0  0  0  0  0  0           0  0  0
   -0.3167   -2.0583    0.0000 O   0  5  0  0  0  0           0  0  0
    0.8667   -1.4000    0.0000 O   0  0  0  0  0  0           0  0  0
   -2.0125   -0.3750    0.0000 C   0  0  0  0  0  0           0  0  0
   -2.0125    0.4542    0.0000 C   0  0  0  0  0  0           0  0  0
   -2.7292   -0.7792    0.0000 Cl  0  0  0  0  0  0           0  0  0
    0.8917   -0.3750    0.0000 C   0  0  0  0  0  0           0  0  0
    1.6000    0.8708    0.0000 C   0  0  0  0  0  0           0  0  0
    2.3167    0.4542    0.0000 C   0  0  0  0  0  0           0  0  0
    1.6000   -0.7792    0.0000 C   0  0  0  0  0  0           0  0  0
    2.3167   -0.3750    0.0000 C   0  0  0  0  0  0           0  0  0
  2  1  1  0     0  0
  3  2  1  0     0  0
  4  3  1  0     0  0
  5  3  2  0     0  0
  6  2  2  0     0  0
  7  1  2  0     0  0
  8  1  2  0     0  0
  9  1  1  0     0  0
 10  4  1  0     0  0
 11  4  2  0     0  0
 12 13  2  0     0  0
 13  6  1  0     0  0
 14 12  1  0     0  0
 15  9  1  0     0  0
 16  9  2  0     0  0
 17 16  1  0     0  0
 18 15  2  0     0  0
 19 18  1  0     0  0
 19 17  2  0     0  0
 12  5  1  0     0  0
M  CHG  2   4   1  10  -1
M  END
>  <prID>
111

>  <IDDB>
32700

>  <pIC50_HIV_Integrase>
4.083546051

>  <Q>
-0.127490189

>  <Activity_Integrase>
Inactive_Integrase

NA
NA
NA
NA
$$$$

  Accelrys05311914352D 1   1.00000     0.00000     0

 27 28  0     0  0            999 V2000
    0.0375    0.6292    0.0000 S   0  0  3  0  0  0           0  0  0
   -1.9792    0.2375    0.0000 C   0  0  0  0  0  0           0  0  0
    1.9583    0.2375    0.0000 C   0  0  0  0  0  0           0  0  0
   -2.6500    0.6250    0.0000 N   0  3  0  0  0  0           0  0  0
    2.6250    0.6292    0.0000 N   0  3  0  0  0  0           0  0  0
   -1.9792   -0.5375    0.0000 C   0  0  0  0  0  0           0  0  0
    1.9583   -0.5375    0.0000 C   0  0  0  0  0  0           0  0  0
   -0.6333    0.2375    0.0000 C   0  0  0  0  0  0           0  0  0
    0.6167    0.2375    0.0000 C   0  0  0  0  0  0           0  0  0
   -1.3000    0.6292    0.0000 C   0  0  0  0  0  0           0  0  0
    1.2833    0.6292    0.0000 C   0  0  0  0  0  0           0  0  0
   -2.5250   -1.0875    0.0000 C   0  0  0  0  0  0           0  0  0
    2.6250   -0.9292    0.0000 C   0  0  0  0  0  0           0  0  0
   -1.3000   -0.9250    0.0000 C   0  0  0  0  0  0           0  0  0
    1.2833   -0.9250    0.0000 C   0  0  0  0  0  0           0  0  0
    0.5250    1.6208    0.0000 O   0  0  0  0  0  0           0  0  0
   -0.5042    1.6542    0.0000 O   0  0  0  0  0  0           0  0  0
   -2.6583    1.5625    0.0000 O   0  5  0  0  0  0           0  0  0
    2.5833    1.5625    0.0000 O   0  5  0  0  0  0           0  0  0
    3.3542    0.3000    0.0000 O   0  0  0  0  0  0           0  0  0
   -3.4792    0.2375    0.0000 O   0  0  0  0  0  0           0  0  0
   -0.6333   -0.5375    0.0000 C   0  0  0  0  0  0           0  0  0
    0.6167   -0.5375    0.0000 C   0  0  0  0  0  0           0  0  0
   -2.5292   -1.8667    0.0000 O   0  0  0  0  0  0           0  0  0
    2.6208   -1.7083    0.0000 O   0  0  0  0  0  0           0  0  0
    3.4375   -0.5542    0.0000 O   0  0  0  0  0  0           0  0  0
   -3.4208   -0.8208    0.0000 O   0  0  0  0  0  0           0  0  0
  2 10  1  0     0  0
  3 11  1  0     0  0
  4  2  1  0     0  0
  5  3  1  0     0  0
  6 14  1  0     0  0
  7 15  1  0     0  0
  8  1  1  0     0  0
  9  1  1  0     0  0
 10  8  2  0     0  0
 11  9  2  0     0  0
 12  6  1  0     0  0
 13  7  1  0     0  0
 14 22  2  0     0  0
 15 23  2  0     0  0
 16  1  2  0     0  0
 17  1  2  0     0  0
 18  4  1  0     0  0
 19  5  1  0     0  0
 20  5  2  0     0  0
 21  4  2  0     0  0
 22  8  1  0     0  0
 23  9  1  0     0  0
 24 12  2  0     0  0
 25 13  2  0     0  0
 26 13  1  0     0  0
 27 12  1  0     0  0
  7  3  2  0     0  0
  6  2  2  0     0  0
M  CHG  4   4   1   5   1  18  -1  19  -1
M  END
>  <prID>
112

>  <IDDB>
32701

>  <pIC50_HIV_Integrase>
4.080921908

>  <Q>
-1.211875788

>  <Activity_Integrase>
Inactive_Integrase

NA
NA
NA
NA
$$$$

  Accelrys05311914352D 1   1.00000     0.00000     0

 26 27  0     0  0            999 V2000
    0.1917    0.8917    0.0000 S   0  0  3  0  0  0           0  0  0
   -1.2167   -0.9458    0.0000 C   0  0  0  0  0  0           0  0  0
   -1.9250    0.2875    0.0000 C   0  0  0  0  0  0           0  0  0
   -1.9250   -0.5375    0.0000 C   0  0  0  0  0  0           0  0  0
   -1.2208   -1.7708    0.0000 N   0  3  0  0  0  0           0  0  0
   -2.6417    0.7000    0.0000 N   0  3  0  0  0  0           0  0  0
    2.2417    0.2875    0.0000 C   0  0  0  0  0  0           0  0  0
   -0.5000    0.2875    0.0000 C   0  0  0  0  0  0           0  0  0
    2.9542    0.7000    0.0000 N   0  3  0  0  0  0           0  0  0
   -1.2167    0.7000    0.0000 C   0  0  0  0  0  0           0  0  0
   -0.5000   -0.5375    0.0000 C   0  0  0  0  0  0           0  0  0
    1.5333    0.7000    0.0000 C   0  0  0  0  0  0           0  0  0
    0.8167    0.2875    0.0000 C   0  0  0  0  0  0           0  0  0
    2.2417   -0.5375    0.0000 C   0  0  0  0  0  0           0  0  0
   -0.3667    1.7875    0.0000 O   0  0  0  0  0  0           0  0  0
    0.7208    1.7542    0.0000 O   0  0  0  0  0  0           0  0  0
   -2.6458    1.6917    0.0000 O   0  5  0  0  0  0           0  0  0
   -3.5208    0.2875    0.0000 O   0  0  0  0  0  0           0  0  0
   -2.0875   -2.3250    0.0000 O   0  5  0  0  0  0           0  0  0
   -0.4000   -2.2625    0.0000 O   0  0  0  0  0  0           0  0  0
    2.9125    1.6917    0.0000 O   0  5  0  0  0  0           0  0  0
    3.7542    0.2958    0.0000 O   0  0  0  0  0  0           0  0  0
    0.8167   -0.5375    0.0000 C   0  0  0  0  0  0           0  0  0
   -2.6417   -0.9458    0.0000 Cl  0  0  0  0  0  0           0  0  0
    1.5333   -0.9458    0.0000 C   0  0  0  0  0  0           0  0  0
    3.0625   -0.9500    0.0000 Cl  0  0  0  0  0  0           0  0  0
  2 11  2  0     0  0
  3 10  1  0     0  0
  4  3  2  0     0  0
  5  2  1  0     0  0
  6  3  1  0     0  0
  7 12  1  0     0  0
  8  1  1  0     0  0
  9  7  1  0     0  0
 10  8  2  0     0  0
 11  8  1  0     0  0
 12 13  2  0     0  0
 13  1  1  0     0  0
 14 25  1  0     0  0
 15  1  2  0     0  0
 16  1  2  0     0  0
 17  6  1  0     0  0
 18  6  2  0     0  0
 19  5  1  0     0  0
 20  5  2  0     0  0
 21  9  1  0     0  0
 22  9  2  0     0  0
 23 13  1  0     0  0
 24  4  1  0     0  0
 25 23  2  0     0  0
 26 14  1  0     0  0
 14  7  2  0     0  0
  4  2  1  0     0  0
M  CHG  6   5   1   6   1   9   1  17  -1  19  -1  21  -1
M  END
>  <prID>
113

>  <IDDB>
32702

>  <pIC50_HIV_Integrase>
4.183096161

>  <Q>
-1.338923517

>  <Activity_Integrase>
Inactive_Integrase

NA
NA
NA
NA
$$$$

  Accelrys05311914352D 1   1.00000     0.00000     0

 21 22  0     0  0            999 V2000
    0.7583    0.9458    0.0000 S   0  0  3  0  0  0           0  0  0
   -3.8375   -0.8125    0.0000 N   0  3  0  0  0  0           0  0  0
   -2.8042   -0.2917    0.0000 N   0  0  0  0  0  0           0  0  0
   -4.8958   -1.4625    0.0000 N   0  5  0  0  0  0           0  0  0
   -2.0875   -0.7042    0.0000 C   0  0  0  0  0  0           0  0  0
    0.0500    0.5292    0.0000 C   0  0  0  0  0  0           0  0  0
    1.5625    0.4375    0.0000 C   0  0  0  0  0  0           0  0  0
    1.3417    1.9042    0.0000 O   0  0  0  0  0  0           0  0  0
    0.0000    1.9375    0.0000 O   0  0  0  0  0  0           0  0  0
   -1.3750   -0.2958    0.0000 C   0  0  0  0  0  0           0  0  0
   -2.0958   -1.5292    0.0000 O   0  0  0  0  0  0           0  0  0
   -0.6625    0.9458    0.0000 C   0  0  0  0  0  0           0  0  0
    0.0500   -0.2958    0.0000 C   0  0  0  0  0  0           0  0  0
   -0.6625   -0.7042    0.0000 C   0  0  0  0  0  0           0  0  0
   -1.3750    0.5292    0.0000 C   0  0  0  0  0  0           0  0  0
    1.5625   -0.3875    0.0000 C   0  0  0  0  0  0           0  0  0
    2.2792    0.8542    0.0000 C   0  0  0  0  0  0           0  0  0
    2.9875   -0.3875    0.0000 C   0  0  0  0  0  0           0  0  0
    2.2792   -0.7958    0.0000 C   0  0  0  0  0  0           0  0  0
    2.9875    0.4375    0.0000 C   0  0  0  0  0  0           0  0  0
    3.8750   -0.8125    0.0000 F   0  0  0  0  0  0           0  0  0
  2  3  2  0     0  0
  3  5  1  0     0  0
  4  2  2  0     0  0
  5 10  1  0     0  0
  6  1  1  0     0  0
  7  1  1  0     0  0
  8  1  2  0     0  0
  9  1  2  0     0  0
 10 15  2  0     0  0
 11  5  2  0     0  0
 12  6  2  0     0  0
 13  6  1  0     0  0
 14 13  2  0     0  0
 15 12  1  0     0  0
 16  7  1  0     0  0
 17  7  2  0     0  0
 18 20  2  0     0  0
 19 16  2  0     0  0
 20 17  1  0     0  0
 21 18  1  0     0  0
 18 19  1  0     0  0
 10 14  1  0     0  0
M  CHG  2   2   1   4  -1
M  END
>  <prID>
114

>  <IDDB>
32705

>  <pIC50_HIV_Integrase>
4.045757491

>  <Q>
-2.292816151

>  <Activity_Integrase>
Inactive_Integrase

NA
NA
NA
NA
$$$$

  Accelrys05311914352D 1   1.00000     0.00000     0

 21 22  0     0  0            999 V2000
   -0.2292    0.8917    0.0000 S   0  0  3  0  0  0           0  0  0
   -0.9417    0.4750    0.0000 C   0  0  0  0  0  0           0  0  0
    0.5750    0.3833    0.0000 C   0  0  0  0  0  0           0  0  0
   -2.3792   -1.9917    0.0000 C   0  0  0  0  0  0           0  0  0
    3.4167    0.3875    0.0000 C   0  0  0  0  0  0           0  0  0
   -0.9417   -0.3500    0.0000 C   0  0  0  0  0  0           0  0  0
    1.2833    0.8000    0.0000 C   0  0  0  0  0  0           0  0  0
   -0.9875    1.8833    0.0000 O   0  0  0  0  0  0           0  0  0
    0.3542    1.8500    0.0000 O   0  0  0  0  0  0           0  0  0
    2.7042    0.8000    0.0000 N   0  0  0  0  0  0           0  0  0
   -1.6625   -1.5833    0.0000 N   0  0  0  0  0  0           0  0  0
   -3.1833   -2.3833    0.0000 O   0  0  0  0  0  0           0  0  0
    4.1208   -0.0375    0.0000 O   0  0  0  0  0  0           0  0  0
    2.0000    0.3833    0.0000 C   0  0  0  0  0  0           0  0  0
   -1.6542   -0.7583    0.0000 C   0  0  0  0  0  0           0  0  0
    0.5750   -0.4375    0.0000 C   0  0  0  0  0  0           0  0  0
   -1.6542    0.8917    0.0000 C   0  0  0  0  0  0           0  0  0
    1.2833   -0.8500    0.0000 C   0  0  0  0  0  0           0  0  0
   -2.3625    0.4750    0.0000 C   0  0  0  0  0  0           0  0  0
   -2.3625   -0.3500    0.0000 C   0  0  0  0  0  0           0  0  0
    2.0000   -0.4375    0.0000 C   0  0  0  0  0  0           0  0  0
  2  1  1  0     0  0
  3  1  1  0     0  0
  4 11  2  0     0  0
  5 10  2  0     0  0
  6  2  1  0     0  0
  7  3  2  0     0  0
  8  1  2  0     0  0
  9  1  2  0     0  0
 10 14  1  0     0  0
 11 15  1  0     0  0
 12  4  2  0     0  0
 13  5  2  0     0  0
 14  7  1  0     0  0
 15  6  2  0     0  0
 16  3  1  0     0  0
 17  2  2  0     0  0
 18 16  2  0     0  0
 19 17  1  0     0  0
 20 19  2  0     0  0
 21 18  1  0     0  0
 21 14  2  0     0  0
 20 15  1  0     0  0
M  END
>  <prID>
115

>  <IDDB>
32706

>  <pIC50_HIV_Integrase>
4.045757491

>  <Q>
1.347707092

>  <Activity_Integrase>
Inactive_Integrase

NA
NA
NA
NA
$$$$

  Accelrys05311914352D 1   1.00000     0.00000     0

 23 24  0     0  0            999 V2000
   -0.2208    0.9708    0.0000 S   0  0  3  0  0  0           0  0  0
   -0.9333    0.5542    0.0000 C   0  0  0  0  0  0           0  0  0
    0.5792    0.4625    0.0000 C   0  0  0  0  0  0           0  0  0
   -0.9333   -0.2708    0.0000 C   0  0  0  0  0  0           0  0  0
    1.2958    0.8792    0.0000 C   0  0  0  0  0  0           0  0  0
   -2.3667   -1.9125    0.0000 C   0  0  0  0  0  0           0  0  0
    3.4292    0.4667    0.0000 C   0  0  0  0  0  0           0  0  0
   -1.6417   -0.6792    0.0000 C   0  0  0  0  0  0           0  0  0
    2.0042    0.4625    0.0000 C   0  0  0  0  0  0           0  0  0
    2.7167    0.8792    0.0000 N   0  0  0  0  0  0           0  0  0
   -1.6500   -1.5042    0.0000 N   0  0  0  0  0  0           0  0  0
   -0.9833    1.9625    0.0000 O   0  0  0  0  0  0           0  0  0
    0.3583    1.9292    0.0000 O   0  0  0  0  0  0           0  0  0
   -2.3583   -0.2708    0.0000 C   0  0  0  0  0  0           0  0  0
    2.0042   -0.3625    0.0000 C   0  0  0  0  0  0           0  0  0
    0.5792   -0.3625    0.0000 C   0  0  0  0  0  0           0  0  0
   -1.6417    0.9708    0.0000 C   0  0  0  0  0  0           0  0  0
   -3.1667   -2.4000    0.0000 O   0  0  0  0  0  0           0  0  0
    4.2375    0.0083    0.0000 O   0  0  0  0  0  0           0  0  0
   -2.3583    0.5542    0.0000 C   0  0  0  0  0  0           0  0  0
    1.2958   -0.7708    0.0000 C   0  0  0  0  0  0           0  0  0
   -3.2583   -0.7000    0.0000 Cl  0  0  0  0  0  0           0  0  0
    2.9583   -0.8250    0.0000 Cl  0  0  0  0  0  0           0  0  0
  2  1  1  0     0  0
  3  1  1  0     0  0
  4  2  1  0     0  0
  5  3  2  0     0  0
  6 11  2  0     0  0
  7 10  2  0     0  0
  8  4  2  0     0  0
  9  5  1  0     0  0
 10  9  1  0     0  0
 11  8  1  0     0  0
 12  1  2  0     0  0
 13  1  2  0     0  0
 14 20  2  0     0  0
 15 21  1  0     0  0
 16  3  1  0     0  0
 17  2  2  0     0  0
 18  6  2  0     0  0
 19  7  2  0     0  0
 20 17  1  0     0  0
 21 16  2  0     0  0
 22 14  1  0     0  0
 23 15  1  0     0  0
 15  9  2  0     0  0
 14  8  1  0     0  0
M  END
>  <prID>
116

>  <IDDB>
32707

>  <pIC50_HIV_Integrase>
4.045757491

>  <Q>
-0.467329372

>  <Activity_Integrase>
Inactive_Integrase

NA
NA
NA
NA
$$$$

  Accelrys05311914352D 1   1.00000     0.00000     0

 23 24  0     0  0            999 V2000
    0.0125    0.4083    0.0000 S   0  0  3  0  0  0           0  0  0
   -2.1208   -0.0083    0.0000 C   0  0  0  0  0  0           0  0  0
    2.1167    0.0208    0.0000 C   0  0  0  0  0  0           0  0  0
   -2.8375    0.4042    0.0000 N   0  3  0  0  0  0           0  0  0
    2.8250    0.4375    0.0000 N   0  3  0  0  0  0           0  0  0
   -1.4083    0.4083    0.0000 C   0  0  0  0  0  0           0  0  0
    1.4042    0.4375    0.0000 C   0  0  0  0  0  0           0  0  0
   -0.6958   -0.0083    0.0000 C   0  0  0  0  0  0           0  0  0
    0.6917    0.0208    0.0000 C   0  0  0  0  0  0           0  0  0
   -2.1208   -0.8333    0.0000 C   0  0  0  0  0  0           0  0  0
    2.1417   -0.8625    0.0000 C   0  0  0  0  0  0           0  0  0
    0.5667    1.5500    0.0000 O   0  0  0  0  0  0           0  0  0
   -0.5583    1.5833    0.0000 O   0  0  0  0  0  0           0  0  0
   -2.8333    1.5625    0.0000 O   0  5  0  0  0  0           0  0  0
   -3.8292   -0.0625    0.0000 O   0  0  0  0  0  0           0  0  0
    2.8208    1.5958    0.0000 O   0  5  0  0  0  0           0  0  0
    3.7250    0.0000    0.0000 O   0  0  0  0  0  0           0  0  0
   -0.6958   -0.8333    0.0000 C   0  0  0  0  0  0           0  0  0
    0.6917   -0.8042    0.0000 C   0  0  0  0  0  0           0  0  0
   -1.4083   -1.2417    0.0000 C   0  0  0  0  0  0           0  0  0
    1.4042   -1.2125    0.0000 C   0  0  0  0  0  0           0  0  0
   -2.8625   -1.2458    0.0000 N   0  0  0  0  0  0           0  0  0
    2.9125   -1.2792    0.0000 N   0  0  0  0  0  0           0  0  0
  2  6  1  0     0  0
  3  7  1  0     0  0
  4  2  1  0     0  0
  5  3  1  0     0  0
  6  8  2  0     0  0
  7  9  2  0     0  0
  8  1  1  0     0  0
  9  1  1  0     0  0
 10 20  1  0     0  0
 11 21  1  0     0  0
 12  1  2  0     0  0
 13  1  2  0     0  0
 14  4  1  0     0  0
 15  4  2  0     0  0
 16  5  1  0     0  0
 17  5  2  0     0  0
 18  8  1  0     0  0
 19  9  1  0     0  0
 20 18  2  0     0  0
 21 19  2  0     0  0
 22 10  1  0     0  0
 23 11  1  0     0  0
 11  3  2  0     0  0
 10  2  2  0     0  0
M  CHG  4   4   1   5   1  14  -1  16  -1
M  END
>  <prID>
117

>  <IDDB>
32711

>  <pIC50_HIV_Integrase>
4

>  <Q>
-2.202914413

>  <Activity_Integrase>
Inactive_Integrase

NA
NA
NA
NA
$$$$

  Accelrys05311914352D 1   1.00000     0.00000     0

 23 24  0     0  0            999 V2000
    0.0000    0.4208    0.0000 S   0  0  3  0  0  0           0  0  0
   -2.1333    0.0000    0.0000 C   0  0  0  0  0  0           0  0  0
    2.1583    0.0292    0.0000 C   0  0  0  0  0  0           0  0  0
   -2.8500    0.4167    0.0000 N   0  3  0  0  0  0           0  0  0
    2.8708    0.4458    0.0000 N   0  3  0  0  0  0           0  0  0
   -1.4208    0.4208    0.0000 C   0  0  0  0  0  0           0  0  0
    1.4500    0.4458    0.0000 C   0  0  0  0  0  0           0  0  0
   -0.7083    0.0000    0.0000 C   0  0  0  0  0  0           0  0  0
    0.7375    0.0292    0.0000 C   0  0  0  0  0  0           0  0  0
   -2.1333   -0.8208    0.0000 C   0  0  0  0  0  0           0  0  0
    2.1583   -0.7958    0.0000 C   0  0  0  0  0  0           0  0  0
    0.5500    1.5000    0.0000 O   0  0  0  0  0  0           0  0  0
   -0.5125    1.4667    0.0000 O   0  0  0  0  0  0           0  0  0
   -2.8542    1.6208    0.0000 O   0  5  0  0  0  0           0  0  0
   -3.9833   -0.1208    0.0000 O   0  0  0  0  0  0           0  0  0
    2.8583    1.6208    0.0000 O   0  5  0  0  0  0           0  0  0
    3.7667    0.0000    0.0000 O   0  0  0  0  0  0           0  0  0
   -0.7083   -0.8208    0.0000 C   0  0  0  0  0  0           0  0  0
    0.7375   -0.7958    0.0000 C   0  0  0  0  0  0           0  0  0
   -1.4208   -1.2333    0.0000 C   0  0  0  0  0  0           0  0  0
    1.4500   -1.2000    0.0000 C   0  0  0  0  0  0           0  0  0
   -3.1333   -1.3375    0.0000 S   0  0  0  0  0  0           0  0  0
    3.0792   -1.2500    0.0000 S   0  0  0  0  0  0           0  0  0
  2  6  1  0     0  0
  3  7  1  0     0  0
  4  2  1  0     0  0
  5  3  1  0     0  0
  6  8  2  0     0  0
  7  9  2  0     0  0
  8  1  1  0     0  0
  9  1  1  0     0  0
 10 20  1  0     0  0
 11 21  1  0     0  0
 12  1  2  0     0  0
 13  1  2  0     0  0
 14  4  1  0     0  0
 15  4  2  0     0  0
 16  5  1  0     0  0
 17  5  2  0     0  0
 18  8  1  0     0  0
 19  9  1  0     0  0
 20 18  2  0     0  0
 21 19  2  0     0  0
 22 10  1  0     0  0
 23 11  1  0     0  0
 11  3  2  0     0  0
 10  2  2  0     0  0
M  CHG  4   4   1   5   1  14  -1  16  -1
M  END
>  <prID>
118

>  <IDDB>
32713

>  <pIC50_HIV_Integrase>
5.602059991

>  <Q>
3.732039711

>  <Activity_Integrase>
Inactive_Integrase

NA
NA
NA
NA
$$$$

  Accelrys05311914352D 1   1.00000     0.00000     0

 31 32  0     0  0            999 V2000
    0.0167    1.1667    0.0000 S   0  0  3  0  0  0           0  0  0
   -2.1125    0.7500    0.0000 C   0  0  0  0  0  0           0  0  0
    2.1792    0.7833    0.0000 C   0  0  0  0  0  0           0  0  0
   -2.8292    1.1625    0.0000 N   0  3  0  0  0  0           0  0  0
    2.8917    1.2000    0.0000 N   0  3  0  0  0  0           0  0  0
    1.4708    1.2000    0.0000 C   0  0  0  0  0  0           0  0  0
   -1.4000    1.1667    0.0000 C   0  0  0  0  0  0           0  0  0
    0.7583    0.7833    0.0000 C   0  0  0  0  0  0           0  0  0
   -0.6875    0.7500    0.0000 C   0  0  0  0  0  0           0  0  0
    2.1792   -0.0458    0.0000 C   0  0  0  0  0  0           0  0  0
   -2.1125   -0.0750    0.0000 C   0  0  0  0  0  0           0  0  0
   -0.4917    2.2208    0.0000 O   0  0  0  0  0  0           0  0  0
    0.5708    2.2458    0.0000 O   0  0  0  0  0  0           0  0  0
   -2.8375    2.3708    0.0000 O   0  5  0  0  0  0           0  0  0
   -3.9625    0.6250    0.0000 O   0  0  0  0  0  0           0  0  0
    2.8792    2.3708    0.0000 O   0  5  0  0  0  0           0  0  0
    3.7875    0.7500    0.0000 O   0  0  0  0  0  0           0  0  0
   -4.0917   -2.2792    0.0000 C   0  0  0  0  0  0           0  0  0
    3.9792   -2.0292    0.0000 C   0  0  0  0  0  0           0  0  0
   -3.1125   -0.5917    0.0000 O   0  0  0  0  0  0           0  0  0
    3.1000   -0.5000    0.0000 O   0  0  0  0  0  0           0  0  0
    0.7583   -0.0458    0.0000 C   0  0  0  0  0  0           0  0  0
   -0.6875   -0.0750    0.0000 C   0  0  0  0  0  0           0  0  0
   -4.1000   -3.4000    0.0000 O   0  0  0  0  0  0           0  0  0
    3.9750   -3.0458    0.0000 O   0  0  0  0  0  0           0  0  0
   -1.4000   -0.4792    0.0000 C   0  0  0  0  0  0           0  0  0
    1.4708   -0.4542    0.0000 C   0  0  0  0  0  0           0  0  0
    3.0958   -1.5167    0.0000 C   0  0  0  0  0  0           0  0  0
   -3.1208   -1.7167    0.0000 C   0  0  0  0  0  0           0  0  0
    4.8583   -1.5167    0.0000 O   0  0  0  0  0  0           0  0  0
   -5.0667   -1.7125    0.0000 O   0  0  0  0  0  0           0  0  0
  2  7  1  0     0  0
  3  6  1  0     0  0
  4  2  1  0     0  0
  5  3  1  0     0  0
  6  8  2  0     0  0
  7  9  2  0     0  0
  8  1  1  0     0  0
  9  1  1  0     0  0
 10 27  1  0     0  0
 11 26  1  0     0  0
 12  1  2  0     0  0
 13  1  2  0     0  0
 14  4  1  0     0  0
 15  4  2  0     0  0
 16  5  1  0     0  0
 17  5  2  0     0  0
 18 29  1  0     0  0
 19 28  1  0     0  0
 20 11  1  0     0  0
 21 10  1  0     0  0
 22  8  1  0     0  0
 23  9  1  0     0  0
 24 18  2  0     0  0
 25 19  2  0     0  0
 26 23  2  0     0  0
 27 22  2  0     0  0
 28 21  1  0     0  0
 29 20  1  0     0  0
 30 19  1  0     0  0
 31 18  1  0     0  0
 10  3  2  0     0  0
 11  2  2  0     0  0
M  CHG  4   4   1   5   1  14  -1  16  -1
M  END
>  <prID>
119

>  <IDDB>
32714

>  <pIC50_HIV_Integrase>
4.192464972

>  <Q>
-2.279782468

>  <Activity_Integrase>
Inactive_Integrase

NA
NA
NA
NA
$$$$

  Accelrys05311914352D 1   1.00000     0.00000     0

 21 22  0     0  0            999 V2000
    5.6875   -3.2834    0.0000 S   0  0  3  0  0  0           0  0  0
    2.1625   -4.3833    0.0000 N   0  0  0  0  0  0           0  0  0
    9.2333   -4.3250    0.0000 N   0  0  0  0  0  0           0  0  0
    5.0333   -3.6666    0.0000 C   0  0  0  0  0  0           0  0  0
    6.3666   -3.6417    0.0000 C   0  0  0  0  0  0           0  0  0
    6.1958   -2.2917    0.0000 O   0  0  0  0  0  0           0  0  0
    5.2166   -2.3167    0.0000 O   0  0  0  0  0  0           0  0  0
    8.3334   -4.7792    0.0000 N   0  0  0  0  0  0           0  0  0
    3.0625   -4.8042    0.0000 N   0  0  0  0  0  0           0  0  0
    1.2708   -4.8416    0.0000 O   0  0  0  0  0  0           0  0  0
    9.9833   -4.7000    0.0000 O   0  0  0  0  0  0           0  0  0
    6.3666   -4.4000    0.0000 C   0  0  0  0  0  0           0  0  0
    7.0250   -3.2583    0.0000 C   0  0  0  0  0  0           0  0  0
    4.3792   -3.2834    0.0000 C   0  0  0  0  0  0           0  0  0
    5.0333   -4.4291    0.0000 C   0  0  0  0  0  0           0  0  0
    7.6791   -4.4000    0.0000 C   0  0  0  0  0  0           0  0  0
    3.7250   -4.4291    0.0000 C   0  0  0  0  0  0           0  0  0
    7.6791   -3.6417    0.0000 C   0  0  0  0  0  0           0  0  0
    3.7250   -3.6666    0.0000 C   0  0  0  0  0  0           0  0  0
    4.3792   -4.8042    0.0000 C   0  0  0  0  0  0           0  0  0
    7.0250   -4.7750    0.0000 C   0  0  0  0  0  0           0  0  0
  2  9  2  0     0  0
  3  8  2  0     0  0
  4  1  1  0     0  0
  5  1  1  0     0  0
  6  1  2  0     0  0
  7  1  2  0     0  0
  8 16  1  0     0  0
  9 17  1  0     0  0
 10  2  1  0     0  0
 11  3  1  0     0  0
 12  5  1  0     0  0
 13  5  2  0     0  0
 14  4  2  0     0  0
 15  4  1  0     0  0
 16 18  2  0     0  0
 17 19  2  0     0  0
 18 13  1  0     0  0
 19 14  1  0     0  0
 20 15  2  0     0  0
 21 12  2  0     0  0
 16 21  1  0     0  0
 17 20  1  0     0  0
M  END
>  <prID>
120

>  <IDDB>
32717

>  <pIC50_HIV_Integrase>
5.214670165

>  <Q>
-1.550278588

>  <Activity_Integrase>
Inactive_Integrase

NA
NA
NA
NA
$$$$

  Accelrys05311914352D 1   1.00000     0.00000     0

 19 20  0     0  0            999 V2000
   -0.0167    0.5667    0.0000 S   0  0  3  0  0  0           0  0  0
   -0.7250    0.1500    0.0000 C   0  0  0  0  0  0           0  0  0
    0.7208    0.1833    0.0000 C   0  0  0  0  0  0           0  0  0
   -1.4375    0.5667    0.0000 C   0  0  0  0  0  0           0  0  0
    1.4375    0.6000    0.0000 C   0  0  0  0  0  0           0  0  0
   -2.1500    0.1500    0.0000 C   0  0  0  0  0  0           0  0  0
    2.1458    0.1833    0.0000 C   0  0  0  0  0  0           0  0  0
    0.5375    1.6458    0.0000 O   0  0  0  0  0  0           0  0  0
   -0.5250    1.6208    0.0000 O   0  0  0  0  0  0           0  0  0
   -2.1500   -0.6750    0.0000 C   0  0  0  0  0  0           0  0  0
    2.1458   -0.6417    0.0000 C   0  0  0  0  0  0           0  0  0
   -0.7250   -0.6750    0.0000 C   0  0  0  0  0  0           0  0  0
    0.7208   -0.6417    0.0000 C   0  0  0  0  0  0           0  0  0
   -1.4375   -1.0792    0.0000 C   0  0  0  0  0  0           0  0  0
    1.4375   -1.0542    0.0000 C   0  0  0  0  0  0           0  0  0
   -3.0958    0.6625    0.0000 N   0  0  0  0  0  0           0  0  0
    2.9958    0.6250    0.0000 N   0  0  0  0  0  0           0  0  0
   -2.9708   -1.0583    0.0000 O   0  0  0  0  0  0           0  0  0
    3.0583   -1.0917    0.0000 O   0  0  0  0  0  0           0  0  0
  2  1  1  0     0  0
  3  1  1  0     0  0
  4  2  2  0     0  0
  5  3  2  0     0  0
  6  4  1  0     0  0
  7  5  1  0     0  0
  8  1  2  0     0  0
  9  1  2  0     0  0
 10 14  1  0     0  0
 11 15  1  0     0  0
 12  2  1  0     0  0
 13  3  1  0     0  0
 14 12  2  0     0  0
 15 13  2  0     0  0
 16  6  1  0     0  0
 17  7  1  0     0  0
 18 10  1  0     0  0
 19 11  1  0     0  0
 11  7  2  0     0  0
 10  6  2  0     0  0
M  END
>  <prID>
121

>  <IDDB>
32718

>  <pIC50_HIV_Integrase>
5.30980392

>  <Q>
-3.496837042

>  <Activity_Integrase>
Inactive_Integrase

NA
NA
NA
NA
$$$$

  Accelrys05311914352D 1   1.00000     0.00000     0

 25 26  0     0  0            999 V2000
   -0.0208    0.8042    0.0000 S   0  0  3  0  0  0           0  0  0
   -0.7333    0.3875    0.0000 C   0  0  0  0  0  0           0  0  0
    0.7500    0.3875    0.0000 C   0  0  0  0  0  0           0  0  0
    0.5000    1.8875    0.0000 O   0  0  0  0  0  0           0  0  0
   -0.6250    1.8250    0.0000 O   0  0  0  0  0  0           0  0  0
   -3.5875   -0.4375    0.0000 C   0  0  0  0  0  0           0  0  0
    3.6000   -0.4333    0.0000 C   0  0  0  0  0  0           0  0  0
    2.8875   -0.8500    0.0000 N   0  0  0  0  0  0           0  0  0
   -2.8708   -0.8500    0.0000 N   0  0  0  0  0  0           0  0  0
   -3.5917    0.3875    0.0000 O   0  0  0  0  0  0           0  0  0
    3.5958    0.3917    0.0000 O   0  0  0  0  0  0           0  0  0
    0.7500   -0.4375    0.0000 C   0  0  0  0  0  0           0  0  0
    1.4583    0.8042    0.0000 C   0  0  0  0  0  0           0  0  0
   -1.4417    0.8042    0.0000 C   0  0  0  0  0  0           0  0  0
   -0.7333   -0.4375    0.0000 C   0  0  0  0  0  0           0  0  0
    2.1750   -0.4375    0.0000 C   0  0  0  0  0  0           0  0  0
   -2.1583   -0.4375    0.0000 C   0  0  0  0  0  0           0  0  0
    2.1750    0.3875    0.0000 C   0  0  0  0  0  0           0  0  0
   -2.1583    0.3875    0.0000 C   0  0  0  0  0  0           0  0  0
   -1.4417   -0.8458    0.0000 C   0  0  0  0  0  0           0  0  0
    1.4583   -0.8458    0.0000 C   0  0  0  0  0  0           0  0  0
   -5.3417   -0.3583    0.0000 Cl  0  0  0  0  0  0           0  0  0
    5.3083   -0.3583    0.0000 Cl  0  0  0  0  0  0           0  0  0
   -4.3042   -0.8458    0.0000 C   0  0  0  0  0  0           0  0  0
    4.3125   -0.8458    0.0000 C   0  0  0  0  0  0           0  0  0
  2  1  1  0     0  0
  3  1  1  0     0  0
  4  1  2  0     0  0
  5  1  2  0     0  0
  6  9  1  0     0  0
  7  8  1  0     0  0
  8 16  1  0     0  0
  9 17  1  0     0  0
 10  6  2  0     0  0
 11  7  2  0     0  0
 12  3  1  0     0  0
 13  3  2  0     0  0
 14  2  2  0     0  0
 15  2  1  0     0  0
 16 18  2  0     0  0
 17 19  2  0     0  0
 18 13  1  0     0  0
 19 14  1  0     0  0
 20 15  2  0     0  0
 21 12  2  0     0  0
 22 24  1  0     0  0
 23 25  1  0     0  0
 24  6  1  0     0  0
 25  7  1  0     0  0
 16 21  1  0     0  0
 17 20  1  0     0  0
M  END
>  <prID>
122

>  <IDDB>
32721

>  <pIC50_HIV_Integrase>
4.332547047

>  <Q>
-2.758549462

>  <Activity_Integrase>
Inactive_Integrase

NA
NA
NA
NA
$$$$

  Accelrys05311914352D 1   1.00000     0.00000     0

 49 50  0     0  0            999 V2000
   -0.0083    1.0792    0.0000 S   0  0  3  0  0  0           0  0  0
   -0.5042    0.8042    0.0000 C   0  0  0  0  0  0           0  0  0
    0.5375    0.8042    0.0000 C   0  0  0  0  0  0           0  0  0
    0.3625    1.7875    0.0000 O   0  0  0  0  0  0           0  0  0
   -0.4333    1.7458    0.0000 O   0  0  0  0  0  0           0  0  0
   -1.0083    1.0792    0.0000 C   0  0  0  0  0  0           0  0  0
   -0.5042    0.2625    0.0000 C   0  0  0  0  0  0           0  0  0
    0.5375    0.2625    0.0000 C   0  0  0  0  0  0           0  0  0
    1.0458    1.0792    0.0000 C   0  0  0  0  0  0           0  0  0
   -2.0208   -0.0083    0.0000 N   0  0  0  0  0  0           0  0  0
    2.0500   -0.0083    0.0000 N   0  0  0  0  0  0           0  0  0
   -2.5333    0.2625    0.0000 C   0  0  0  0  0  0           0  0  0
    2.5542    0.2667    0.0000 C   0  0  0  0  0  0           0  0  0
    1.5417    0.2625    0.0000 C   0  0  0  0  0  0           0  0  0
   -1.5125    0.2625    0.0000 C   0  0  0  0  0  0           0  0  0
   -3.0417   -0.0250    0.0000 S   0  0  0  0  0  0           0  0  0
    3.0500   -0.0167    0.0000 S   0  0  0  0  0  0           0  0  0
    1.5417    0.8042    0.0000 C   0  0  0  0  0  0           0  0  0
   -1.5125    0.8042    0.0000 C   0  0  0  0  0  0           0  0  0
   -1.0083   -0.0042    0.0000 C   0  0  0  0  0  0           0  0  0
    1.0458   -0.0042    0.0000 C   0  0  0  0  0  0           0  0  0
   -3.5500    0.2708    0.0000 C   0  0  0  0  0  0           0  0  0
    3.5417    0.2708    0.0000 C   0  0  0  0  0  0           0  0  0
   -3.4708   -0.8958    0.0000 C   0  0  3  0  0  0           0  0  0
    3.6292   -0.9375    0.0000 C   0  0  3  0  0  0           0  0  0
    4.0292   -0.5417    0.0000 C   0  0  0  0  0  0           0  0  0
   -3.9750   -0.6042    0.0000 C   0  0  0  0  0  0           0  0  0
   -4.0625   -0.0208    0.0000 C   0  0  0  0  0  0           0  0  0
    4.0333   -0.0125    0.0000 C   0  0  0  0  0  0           0  0  0
    4.5167   -0.8250    0.0000 C   0  0  0  0  0  0           0  0  0
   -4.4792   -0.9000    0.0000 C   0  0  0  0  0  0           0  0  0
    5.4917    0.2792    0.0000 C   0  0  0  0  0  0           0  0  0
   -6.1167   -0.6083    0.0000 C   0  0  0  0  0  0           0  0  0
    5.9750    0.0000    0.0000 C   0  0  0  0  0  0           0  0  0
   -5.6125   -0.9042    0.0000 C   0  0  0  0  0  0           0  0  0
    5.9708   -0.5542    0.0000 C   0  0  0  0  0  0           0  0  0
   -5.1500   -0.6125    0.0000 C   0  0  0  0  0  0           0  0  0
    5.4875   -0.8292    0.0000 C   0  0  0  0  0  0           0  0  0
   -4.5750    0.2750    0.0000 C   0  0  0  0  0  0           0  0  0
    5.0042   -0.5500    0.0000 C   0  0  0  0  0  0           0  0  0
   -5.0875   -0.0208    0.0000 C   0  0  0  0  0  0           0  0  0
    4.5208    0.2750    0.0000 C   0  0  0  0  0  0           0  0  0
   -5.6000    0.2792    0.0000 C   0  0  0  0  0  0           0  0  0
    5.0083   -0.0042    0.0000 C   0  0  0  0  0  0           0  0  0
   -6.1125   -0.0167    0.0000 C   0  0  0  0  0  0           0  0  0
   -3.4750   -1.4750    0.0000 C   0  0  0  0  0  0           0  0  0
   -2.9667   -0.6042    0.0000 C   0  0  0  0  0  0           0  0  0
    3.1417   -0.6542    0.0000 C   0  0  0  0  0  0           0  0  0
    3.6250   -1.5000    0.0000 C   0  0  0  0  0  0           0  0  0
  2  1  1  0     0  0
  3  1  1  0     0  0
  4  1  2  0     0  0
  5  1  2  0     0  0
  6  2  2  0     0  0
  7  2  1  0     0  0
  8  3  1  0     0  0
  9  3  2  0     0  0
 10 15  1  0     0  0
 11 14  1  0     0  0
 12 10  1  0     0  0
 13 11  1  0     0  0
 14 18  2  0     0  0
 15 19  2  0     0  0
 16 12  1  0     0  0
 17 13  1  0     0  0
 18  9  1  0     0  0
 19  6  1  0     0  0
 20  7  2  0     0  0
 21  8  2  0     0  0
 22 16  1  0     0  0
 23 17  1  0     0  0
 24 27  1  0     0  0
 25 26  1  0     0  0
 26 30  1  0     0  0
 27 31  1  0     0  0
 28 22  1  0     0  0
 29 23  1  0     0  0
 30 40  1  0     0  0
 31 37  1  0     0  0
 32 44  1  0     0  0
 33 45  1  0     0  0
 34 32  1  0     0  0
 35 33  1  0     0  0
 36 34  1  0     0  0
 37 35  1  0     0  0
 38 36  1  0     0  0
 39 28  1  0     0  0
 40 38  1  0     0  0
 41 39  1  0     0  0
 42 29  1  0     0  0
 43 41  1  0     0  0
 44 42  1  0     0  0
 45 43  1  0     0  0
 46 24  1  0     0  0
 47 24  1  0     0  0
 48 25  1  0     0  0
 49 25  1  0     0  0
 14 21  1  0     0  0
 15 20  1  0     0  0
M  END
>  <prID>
123

>  <IDDB>
32723

>  <pIC50_HIV_Integrase>
4.045757491

>  <Q>
-5.787376416

>  <Activity_Integrase>
Inactive_Integrase

NA
NA
NA
NA
$$$$

  Accelrys05311914352D 1   1.00000     0.00000     0

 29 30  0     0  0            999 V2000
    0.0042    1.0708    0.0000 S   0  0  3  0  0  0           0  0  0
   -4.4458   -0.4667    0.0000 C   0  0  0  0  0  0           0  0  0
    4.3500   -0.5208    0.0000 C   0  0  0  0  0  0           0  0  0
    3.6167   -0.0792    0.0000 N   0  0  0  0  0  0           0  0  0
   -3.5958   -0.0208    0.0000 N   0  0  0  0  0  0           0  0  0
   -6.3167    0.4875    0.0000 N   0  0  0  0  0  0           0  0  0
   -4.4375   -2.2792    0.0000 N   0  0  0  0  0  0           0  0  0
    5.9583    0.4292    0.0000 N   0  0  0  0  0  0           0  0  0
    4.3375   -2.2542    0.0000 N   0  0  0  0  0  0           0  0  0
   -0.6625    0.6833    0.0000 C   0  0  0  0  0  0           0  0  0
    0.7917    0.6833    0.0000 C   0  0  0  0  0  0           0  0  0
    5.1042   -0.0792    0.0000 C   0  0  0  0  0  0           0  0  0
    4.3417   -1.4000    0.0000 C   0  0  0  0  0  0           0  0  0
   -4.4458   -1.3792    0.0000 C   0  0  0  0  0  0           0  0  0
   -5.3333    0.0042    0.0000 C   0  0  0  0  0  0           0  0  0
   -0.5042    2.0333    0.0000 O   0  0  0  0  0  0           0  0  0
    0.4375    1.9458    0.0000 O   0  0  0  0  0  0           0  0  0
    2.8000   -0.4833    0.0000 N   0  0  0  0  0  0           0  0  0
   -2.6833   -0.4833    0.0000 N   0  0  0  0  0  0           0  0  0
    0.7917   -0.0958    0.0000 C   0  0  0  0  0  0           0  0  0
    1.4583    1.0792    0.0000 C   0  0  0  0  0  0           0  0  0
   -1.3333    1.0708    0.0000 C   0  0  0  0  0  0           0  0  0
   -0.6625   -0.0958    0.0000 C   0  0  0  0  0  0           0  0  0
    2.1333   -0.0958    0.0000 C   0  0  0  0  0  0           0  0  0
   -2.0042   -0.0958    0.0000 C   0  0  0  0  0  0           0  0  0
    2.1333    0.6833    0.0000 C   0  0  0  0  0  0           0  0  0
   -2.0042    0.6833    0.0000 C   0  0  0  0  0  0           0  0  0
   -1.3333   -0.4833    0.0000 C   0  0  0  0  0  0           0  0  0
    1.4583   -0.4792    0.0000 C   0  0  0  0  0  0           0  0  0
  2  5  2  0     0  0
  3  4  2  0     0  0
  4 18  1  0     0  0
  5 19  1  0     0  0
  6 15  3  0     0  0
  7 14  3  0     0  0
  8 12  3  0     0  0
  9 13  3  0     0  0
 10  1  1  0     0  0
 11  1  1  0     0  0
 12  3  1  0     0  0
 13  3  1  0     0  0
 14  2  1  0     0  0
 15  2  1  0     0  0
 16  1  2  0     0  0
 17  1  2  0     0  0
 18 24  1  0     0  0
 19 25  1  0     0  0
 20 11  1  0     0  0
 21 11  2  0     0  0
 22 10  2  0     0  0
 23 10  1  0     0  0
 24 26  2  0     0  0
 25 27  2  0     0  0
 26 21  1  0     0  0
 27 22  1  0     0  0
 28 23  2  0     0  0
 29 20  2  0     0  0
 24 29  1  0     0  0
 25 28  1  0     0  0
M  END
>  <prID>
124

>  <IDDB>
32726

>  <pIC50_HIV_Integrase>
4.659555885

>  <Q>
0.535976624

>  <Activity_Integrase>
Inactive_Integrase

NA
NA
NA
NA
$$$$

  Accelrys05311914352D 1   1.00000     0.00000     0

 33 34  0     0  0            999 V2000
    0.0125    1.1833    0.0000 S   0  0  3  0  0  0           0  0  0
   -4.5208   -0.3792    0.0000 C   0  0  0  0  0  0           0  0  0
    4.4333   -0.4375    0.0000 C   0  0  0  0  0  0           0  0  0
   -3.6542    0.0708    0.0000 N   0  0  0  0  0  0           0  0  0
    3.6833    0.0125    0.0000 N   0  0  0  0  0  0           0  0  0
   -0.6667    0.7833    0.0000 C   0  0  0  0  0  0           0  0  0
    0.8125    0.7917    0.0000 C   0  0  0  0  0  0           0  0  0
   -5.4208    0.1000    0.0000 C   0  0  0  0  0  0           0  0  0
   -4.5208   -1.3083    0.0000 C   0  0  0  0  0  0           0  0  0
    5.2000    0.0167    0.0000 C   0  0  0  0  0  0           0  0  0
    4.4292   -1.3292    0.0000 C   0  0  0  0  0  0           0  0  0
   -0.5083    2.1625    0.0000 O   0  0  0  0  0  0           0  0  0
    0.4542    2.0792    0.0000 O   0  0  0  0  0  0           0  0  0
   -2.7208   -0.4000    0.0000 N   0  0  0  0  0  0           0  0  0
    2.8583   -0.4000    0.0000 N   0  0  0  0  0  0           0  0  0
   -5.4208    1.1208    0.0000 O   0  0  0  0  0  0           0  0  0
   -3.7167   -1.7708    0.0000 O   0  0  0  0  0  0           0  0  0
    5.2000    0.9083    0.0000 O   0  0  0  0  0  0           0  0  0
    3.7583   -1.8375    0.0000 O   0  0  0  0  0  0           0  0  0
    0.8125    0.0000    0.0000 C   0  0  0  0  0  0           0  0  0
    1.4958    1.1875    0.0000 C   0  0  0  0  0  0           0  0  0
   -0.6667   -0.0042    0.0000 C   0  0  0  0  0  0           0  0  0
   -1.3500    1.1833    0.0000 C   0  0  0  0  0  0           0  0  0
   -2.0333   -0.0042    0.0000 C   0  0  0  0  0  0           0  0  0
    2.1792    0.0000    0.0000 C   0  0  0  0  0  0           0  0  0
   -1.3500   -0.4000    0.0000 C   0  0  0  0  0  0           0  0  0
   -2.0333    0.7833    0.0000 C   0  0  0  0  0  0           0  0  0
    1.4958   -0.3917    0.0000 C   0  0  0  0  0  0           0  0  0
    2.1792    0.7917    0.0000 C   0  0  0  0  0  0           0  0  0
    5.9750   -0.4333    0.0000 C   0  0  0  0  0  0           0  0  0
   -5.3417   -1.8500    0.0000 C   0  0  0  0  0  0           0  0  0
    5.1958   -1.7708    0.0000 C   0  0  0  0  0  0           0  0  0
   -6.2958   -0.4083    0.0000 C   0  0  0  0  0  0           0  0  0
  2  4  2  0     0  0
  3  5  2  0     0  0
  4 14  1  0     0  0
  5 15  1  0     0  0
  6  1  1  0     0  0
  7  1  1  0     0  0
  8  2  1  0     0  0
  9  2  1  0     0  0
 10  3  1  0     0  0
 11  3  1  0     0  0
 12  1  2  0     0  0
 13  1  2  0     0  0
 14 24  1  0     0  0
 15 25  1  0     0  0
 16  8  2  0     0  0
 17  9  2  0     0  0
 18 10  2  0     0  0
 19 11  2  0     0  0
 20  7  1  0     0  0
 21  7  2  0     0  0
 22  6  1  0     0  0
 23  6  2  0     0  0
 24 27  2  0     0  0
 25 29  2  0     0  0
 26 22  2  0     0  0
 27 23  1  0     0  0
 28 20  2  0     0  0
 29 21  1  0     0  0
 30 10  1  0     0  0
 31  9  1  0     0  0
 32 11  1  0     0  0
 33  8  1  0     0  0
 25 28  1  0     0  0
 24 26  1  0     0  0
M  END
>  <prID>
125

>  <IDDB>
32727

>  <pIC50_HIV_Integrase>
4.045757491

>  <Q>
-2.269990499

>  <Activity_Integrase>
Inactive_Integrase

NA
NA
NA
NA
$$$$

  Accelrys05311914352D 1   1.00000     0.00000     0

 31 32  0     0  0            999 V2000
   -2.8833    0.0333    0.0000 S   0  0  3  0  0  0           0  0  0
    2.9333    0.0417    0.0000 S   0  0  3  0  0  0           0  0  0
   -0.0333    0.0417    0.0000 S   0  0  3  0  0  0           0  0  0
   -3.8292    0.0417    0.0000 S   0  0  0  0  0  0           0  0  0
    3.9792    0.0417    0.0000 S   0  0  0  0  0  0           0  0  0
   -4.6083    0.7292    0.0000 C   0  0  3  0  0  0           0  0  0
    4.4125    0.9167    0.0000 C   0  0  3  0  0  0           0  0  0
   -0.7417   -0.3792    0.0000 C   0  0  0  0  0  0           0  0  0
    0.8000   -0.3750    0.0000 C   0  0  0  0  0  0           0  0  0
    2.2250   -0.3750    0.0000 C   0  0  0  0  0  0           0  0  0
   -2.1667   -0.3792    0.0000 C   0  0  0  0  0  0           0  0  0
    1.5125    0.0417    0.0000 C   0  0  0  0  0  0           0  0  0
   -1.4542    0.0417    0.0000 C   0  0  0  0  0  0           0  0  0
   -2.8917    1.1042    0.0000 O   0  0  0  0  0  0           0  0  0
    2.9458    1.1333    0.0000 O   0  0  0  0  0  0           0  0  0
    3.4167   -0.8000    0.0000 O   0  0  0  0  0  0           0  0  0
   -3.2333   -1.0167    0.0000 O   0  0  0  0  0  0           0  0  0
    0.4250    0.9667    0.0000 O   0  0  0  0  0  0           0  0  0
   -0.5750    1.0625    0.0000 O   0  0  0  0  0  0           0  0  0
   -5.7625    0.7292    0.0000 Cl  0  0  0  0  0  0           0  0  0
   -5.0125   -0.0833    0.0000 Cl  0  0  0  0  0  0           0  0  0
   -4.6375    1.7625    0.0000 Cl  0  0  0  0  0  0           0  0  0
    4.4125    1.9750    0.0000 Cl  0  0  0  0  0  0           0  0  0
    5.4458    0.9167    0.0000 Cl  0  0  0  0  0  0           0  0  0
    5.0708   -0.0833    0.0000 Cl  0  0  0  0  0  0           0  0  0
    0.8000   -1.2000    0.0000 C   0  0  0  0  0  0           0  0  0
   -0.7417   -1.2042    0.0000 C   0  0  0  0  0  0           0  0  0
   -2.1667   -1.2042    0.0000 C   0  0  0  0  0  0           0  0  0
    2.2250   -1.2000    0.0000 C   0  0  0  0  0  0           0  0  0
   -1.4542   -1.6125    0.0000 C   0  0  0  0  0  0           0  0  0
    1.5125   -1.6083    0.0000 C   0  0  0  0  0  0           0  0  0
  2 10  1  0     0  0
  3  8  1  0     0  0
  4  1  1  0     0  0
  5  2  1  0     0  0
  6  4  1  0     0  0
  7  5  1  0     0  0
  8 13  2  0     0  0
  9  3  1  0     0  0
 10 12  1  0     0  0
 11  1  1  0     0  0
 12  9  2  0     0  0
 13 11  1  0     0  0
 14  1  2  0     0  0
 15  2  2  0     0  0
 16  2  2  0     0  0
 17  1  2  0     0  0
 18  3  2  0     0  0
 19  3  2  0     0  0
 20  6  1  0     0  0
 21  6  1  0     0  0
 22  6  1  0     0  0
 23  7  1  0     0  0
 24  7  1  0     0  0
 25  7  1  0     0  0
 26  9  1  0     0  0
 27 30  2  0     0  0
 28 11  2  0     0  0
 29 31  1  0     0  0
 30 28  1  0     0  0
 31 26  2  0     0  0
 27  8  1  0     0  0
 29 10  2  0     0  0
M  END
>  <prID>
126

>  <IDDB>
32729

>  <pIC50_HIV_Integrase>
4.671620397

>  <Q>
-4.826281713

>  <Activity_Integrase>
Inactive_Integrase

NA
NA
NA
NA
$$$$

  Accelrys05311914352D 1   1.00000     0.00000     0

 21 22  0     0  0            999 V2000
   -0.0375    0.4750    0.0000 S   0  0  3  0  0  0           0  0  0
   -0.6625    0.1292    0.0000 C   0  0  0  0  0  0           0  0  0
    0.7000    0.1333    0.0000 C   0  0  0  0  0  0           0  0  0
   -1.9250    0.1292    0.0000 C   0  0  0  0  0  0           0  0  0
    1.9583    0.1333    0.0000 C   0  0  0  0  0  0           0  0  0
    1.3292    0.4833    0.0000 C   0  0  0  0  0  0           0  0  0
   -1.2958    0.4750    0.0000 C   0  0  0  0  0  0           0  0  0
    0.3667    1.2375    0.0000 O   0  0  0  0  0  0           0  0  0
   -0.5167    1.3125    0.0000 O   0  0  0  0  0  0           0  0  0
   -1.9250   -0.5458    0.0000 C   0  0  0  0  0  0           0  0  0
    1.9583   -0.5458    0.0000 C   0  0  0  0  0  0           0  0  0
    0.7000   -0.5458    0.0000 C   0  0  0  0  0  0           0  0  0
   -0.6625   -0.5458    0.0000 C   0  0  0  0  0  0           0  0  0
   -2.6417    0.5417    0.0000 C   0  0  0  0  0  0           0  0  0
    2.6208    0.4750    0.0000 C   0  0  0  0  0  0           0  0  0
   -1.2958   -0.8833    0.0000 C   0  0  0  0  0  0           0  0  0
    1.3292   -0.8792    0.0000 C   0  0  0  0  0  0           0  0  0
   -3.3583    0.1333    0.0000 O   0  0  0  0  0  0           0  0  0
    3.2667    0.1042    0.0000 O   0  0  0  0  0  0           0  0  0
    2.5667   -0.9000    0.0000 O   0  0  0  0  0  0           0  0  0
   -2.5125   -0.8792    0.0000 O   0  0  0  0  0  0           0  0  0
  2  1  1  0     0  0
  3  1  1  0     0  0
  4  7  1  0     0  0
  5  6  1  0     0  0
  6  3  2  0     0  0
  7  2  2  0     0  0
  8  1  2  0     0  0
  9  1  2  0     0  0
 10 16  1  0     0  0
 11 17  1  0     0  0
 12  3  1  0     0  0
 13  2  1  0     0  0
 14  4  1  0     0  0
 15  5  1  0     0  0
 16 13  2  0     0  0
 17 12  2  0     0  0
 18 14  2  0     0  0
 19 15  2  0     0  0
 20 11  1  0     0  0
 21 10  1  0     0  0
 11  5  2  0     0  0
 10  4  2  0     0  0
M  END
>  <prID>
127

>  <IDDB>
32731

>  <pIC50_HIV_Integrase>
5.886056648

>  <Q>
-0.489620987

>  <Activity_Integrase>
Inactive_Integrase

NA
NA
NA
NA
$$$$

  Accelrys05311914352D 1   1.00000     0.00000     0

 25 28  0     0  0            999 V2000
   -0.0208    0.5208    0.0000 S   0  0  3  0  0  0           0  0  0
   -3.2667   -0.1542    0.0000 O   0  0  0  0  0  0           0  0  0
    3.2583   -0.1542    0.0000 O   0  0  0  0  0  0           0  0  0
   -2.6250    0.5917    0.0000 C   0  0  0  0  0  0           0  0  0
    2.5583    0.5208    0.0000 C   0  0  0  0  0  0           0  0  0
   -2.6167   -0.8792    0.0000 C   0  0  0  0  0  0           0  0  0
    2.5792   -0.8500    0.0000 C   0  0  0  0  0  0           0  0  0
   -1.9125    0.1792    0.0000 C   0  0  0  0  0  0           0  0  0
    1.9708    0.1833    0.0000 C   0  0  0  0  0  0           0  0  0
   -1.9125   -0.5000    0.0000 C   0  0  0  0  0  0           0  0  0
    1.9708   -0.5000    0.0000 C   0  0  0  0  0  0           0  0  0
   -0.6500    0.1792    0.0000 C   0  0  0  0  0  0           0  0  0
    0.7167    0.1833    0.0000 C   0  0  0  0  0  0           0  0  0
   -1.2833    0.5208    0.0000 C   0  0  0  0  0  0           0  0  0
    1.3417    0.5292    0.0000 C   0  0  0  0  0  0           0  0  0
   -1.2833   -0.8333    0.0000 C   0  0  0  0  0  0           0  0  0
    1.3417   -0.8292    0.0000 C   0  0  0  0  0  0           0  0  0
   -0.5833    1.5625    0.0000 O   0  0  0  0  0  0           0  0  0
    0.4417    1.4375    0.0000 O   0  0  0  0  0  0           0  0  0
    2.5375    1.3417    0.0000 O   0  0  0  0  0  0           0  0  0
   -2.6333    1.4167    0.0000 O   0  0  0  0  0  0           0  0  0
   -2.6167   -1.7167    0.0000 O   0  0  0  0  0  0           0  0  0
    2.5667   -1.7167    0.0000 O   0  0  0  0  0  0           0  0  0
   -0.6500   -0.5000    0.0000 C   0  0  0  0  0  0           0  0  0
    0.7167   -0.5000    0.0000 C   0  0  0  0  0  0           0  0  0
  2  4  1  0     0  0
  3  5  1  0     0  0
  4  8  1  0     0  0
  5  9  1  0     0  0
  6 10  1  0     0  0
  7 11  1  0     0  0
  8 14  1  0     0  0
  9 15  1  0     0  0
 10 16  1  0     0  0
 11 17  1  0     0  0
 12  1  1  0     0  0
 13  1  1  0     0  0
 14 12  2  0     0  0
 15 13  2  0     0  0
 16 24  2  0     0  0
 17 25  2  0     0  0
 18  1  2  0     0  0
 19  1  2  0     0  0
 20  5  2  0     0  0
 21  4  2  0     0  0
 22  6  2  0     0  0
 23  7  2  0     0  0
 24 12  1  0     0  0
 25 13  1  0     0  0
 11  9  2  0     0  0
 10  8  2  0     0  0
  7  3  1  0     0  0
  6  2  1  0     0  0
M  END
>  <prID>
128

>  <IDDB>
32735

>  <pIC50_HIV_Integrase>
4.730487056

>  <Q>
-0.551151233

>  <Activity_Integrase>
Inactive_Integrase

NA
NA
NA
NA
$$$$

  Accelrys05311914352D 1   1.00000     0.00000     0

 27 28  0     0  0            999 V2000
   -0.0208    0.5375    0.0000 S   0  0  3  0  0  0           0  0  0
   -1.9042    0.1875    0.0000 C   0  0  0  0  0  0           0  0  0
    1.9750    0.1958    0.0000 C   0  0  0  0  0  0           0  0  0
   -0.6458    0.1875    0.0000 C   0  0  0  0  0  0           0  0  0
    0.7167    0.1958    0.0000 C   0  0  0  0  0  0           0  0  0
   -1.9042   -0.4833    0.0000 C   0  0  0  0  0  0           0  0  0
    1.9750   -0.4833    0.0000 C   0  0  0  0  0  0           0  0  0
   -1.2792    0.5375    0.0000 C   0  0  0  0  0  0           0  0  0
    1.3458    0.5417    0.0000 C   0  0  0  0  0  0           0  0  0
    2.5583    0.5375    0.0000 C   0  0  0  0  0  0           0  0  0
   -2.6208    0.6000    0.0000 C   0  0  0  0  0  0           0  0  0
   -2.6125   -0.8625    0.0000 C   0  0  0  0  0  0           0  0  0
    2.5833   -0.8375    0.0000 C   0  0  0  0  0  0           0  0  0
   -1.2792   -0.8208    0.0000 C   0  0  0  0  0  0           0  0  0
    1.3458   -0.8167    0.0000 C   0  0  0  0  0  0           0  0  0
   -0.5833    1.5750    0.0000 O   0  0  0  0  0  0           0  0  0
    0.4458    1.4458    0.0000 O   0  0  0  0  0  0           0  0  0
   -0.6458   -0.4833    0.0000 C   0  0  0  0  0  0           0  0  0
    0.7167   -0.4833    0.0000 C   0  0  0  0  0  0           0  0  0
    2.5375    1.3542    0.0000 O   0  0  0  0  0  0           0  0  0
   -2.6250    1.4250    0.0000 O   0  0  0  0  0  0           0  0  0
   -2.6125   -1.7042    0.0000 O   0  0  0  0  0  0           0  0  0
    2.5750   -1.7042    0.0000 O   0  0  0  0  0  0           0  0  0
   -3.4208    0.3875    0.0000 O   0  0  0  0  0  0           0  0  0
    3.3583    0.3208    0.0000 O   0  0  0  0  0  0           0  0  0
    3.3792   -0.6208    0.0000 O   0  0  0  0  0  0           0  0  0
   -3.4125   -0.6458    0.0000 O   0  0  0  0  0  0           0  0  0
  2  8  1  0     0  0
  3  9  1  0     0  0
  4  1  1  0     0  0
  5  1  1  0     0  0
  6 14  1  0     0  0
  7 15  1  0     0  0
  8  4  2  0     0  0
  9  5  2  0     0  0
 10  3  1  0     0  0
 11  2  1  0     0  0
 12  6  1  0     0  0
 13  7  1  0     0  0
 14 18  2  0     0  0
 15 19  2  0     0  0
 16  1  2  0     0  0
 17  1  2  0     0  0
 18  4  1  0     0  0
 19  5  1  0     0  0
 20 10  2  0     0  0
 21 11  2  0     0  0
 22 12  2  0     0  0
 23 13  2  0     0  0
 24 11  1  0     0  0
 25 10  1  0     0  0
 26 13  1  0     0  0
 27 12  1  0     0  0
  7  3  2  0     0  0
  6  2  2  0     0  0
M  END
>  <prID>
129

>  <IDDB>
32736

>  <pIC50_HIV_Integrase>
4.530177984

>  <Q>
-2.742710446

>  <Activity_Integrase>
Inactive_Integrase

NA
NA
NA
NA
$$$$

  Accelrys05311914352D 1   1.00000     0.00000     0

 20 21  0     0  0            999 V2000
   -1.8000   -0.1875    0.0000 C   0  0  0  0  0  0           0  0  0
    1.8000    0.1875    0.0000 C   0  0  0  0  0  0           0  0  0
   -1.8000   -1.0167    0.0000 C   0  0  0  0  0  0           0  0  0
    1.8167    1.0167    0.0000 C   0  0  0  0  0  0           0  0  0
   -0.3625   -0.2000    0.0000 S   0  0  0  0  0  0           0  0  0
    0.3583    0.2083    0.0000 S   0  0  0  0  0  0           0  0  0
   -1.0833    0.2208    0.0000 C   0  0  0  0  0  0           0  0  0
    1.0750   -0.2125    0.0000 C   0  0  0  0  0  0           0  0  0
   -1.0833   -1.4250    0.0000 O   0  0  0  0  0  0           0  0  0
    1.1000    1.4458    0.0000 O   0  0  0  0  0  0           0  0  0
    2.5333    1.4167    0.0000 O   0  0  0  0  0  0           0  0  0
   -2.5125   -1.4250    0.0000 O   0  0  0  0  0  0           0  0  0
    2.5125   -0.2333    0.0000 C   0  0  0  0  0  0           0  0  0
   -2.5125    0.2208    0.0000 C   0  0  0  0  0  0           0  0  0
   -1.0833    1.0542    0.0000 C   0  0  0  0  0  0           0  0  0
    1.0583   -1.0375    0.0000 C   0  0  0  0  0  0           0  0  0
   -2.5125    1.0542    0.0000 C   0  0  0  0  0  0           0  0  0
    2.5000   -1.0625    0.0000 C   0  0  0  0  0  0           0  0  0
    1.7667   -1.4583    0.0000 C   0  0  0  0  0  0           0  0  0
   -1.8000    1.4625    0.0000 C   0  0  0  0  0  0           0  0  0
  2  8  1  0     0  0
  3  1  1  0     0  0
  4  2  1  0     0  0
  5  7  1  0     0  0
  6  5  1  0     0  0
  7  1  1  0     0  0
  8  6  1  0     0  0
  9  3  2  0     0  0
 10  4  2  0     0  0
 11  4  1  0     0  0
 12  3  1  0     0  0
 13  2  2  0     0  0
 14  1  2  0     0  0
 15  7  2  0     0  0
 16  8  2  0     0  0
 17 14  1  0     0  0
 18 19  2  0     0  0
 19 16  1  0     0  0
 20 17  2  0     0  0
 20 15  1  0     0  0
 18 13  1  0     0  0
M  END
>  <prID>
130

>  <IDDB>
32758

>  <pIC50_HIV_Integrase>
3.751046385

>  <Q>
1.392377656

>  <Activity_Integrase>
Inactive_Integrase

NA
NA
NA
NA
$$$$

  Accelrys05311914352D 1   1.00000     0.00000     0

 24 25  0     0  0            999 V2000
   -1.4375   -0.3542    0.0000 C   0  0  0  0  0  0           0  0  0
    1.4375    0.3625    0.0000 C   0  0  0  0  0  0           0  0  0
    1.0292   -0.3583    0.0000 C   0  0  0  0  0  0           0  0  0
   -1.0250    0.3583    0.0000 C   0  0  0  0  0  0           0  0  0
   -2.2583   -0.3583    0.0000 C   0  0  0  0  0  0           0  0  0
    2.2667    0.3500    0.0000 C   0  0  0  0  0  0           0  0  0
   -1.0292   -1.0625    0.0000 C   0  0  0  0  0  0           0  0  0
    1.0208    1.0792    0.0000 C   0  0  0  0  0  0           0  0  0
   -0.2042    0.3583    0.0000 S   0  0  0  0  0  0           0  0  0
    0.2042   -0.3583    0.0000 S   0  0  0  0  0  0           0  0  0
   -1.4417    1.0708    0.0000 C   0  0  0  0  0  0           0  0  0
    1.4375   -1.0750    0.0000 C   0  0  0  0  0  0           0  0  0
   -2.6708    0.3583    0.0000 C   0  0  0  0  0  0           0  0  0
    2.6750   -0.3667    0.0000 C   0  0  0  0  0  0           0  0  0
   -0.2042   -1.0625    0.0000 O   0  0  0  0  0  0           0  0  0
    0.1958    1.0833    0.0000 O   0  0  0  0  0  0           0  0  0
   -2.2625    1.0750    0.0000 C   0  0  0  0  0  0           0  0  0
    2.2583   -1.0750    0.0000 C   0  0  0  0  0  0           0  0  0
    1.4292    1.7958    0.0000 O   0  0  0  0  0  0           0  0  0
   -1.4458   -1.7792    0.0000 O   0  0  0  0  0  0           0  0  0
   -2.6750   -1.0667    0.0000 C   0  0  0  0  0  0           0  0  0
    2.6708    1.0667    0.0000 C   0  0  0  0  0  0           0  0  0
   -2.6833    1.7958    0.0000 C   0  0  0  0  0  0           0  0  0
    2.6667   -1.7833    0.0000 C   0  0  0  0  0  0           0  0  0
  2  3  1  0     0  0
  3 10  1  0     0  0
  4  1  1  0     0  0
  5  1  2  0     0  0
  6  2  2  0     0  0
  7  1  1  0     0  0
  8  2  1  0     0  0
  9  4  1  0     0  0
 10  9  1  0     0  0
 11  4  2  0     0  0
 12  3  2  0     0  0
 13  5  1  0     0  0
 14 18  2  0     0  0
 15  7  2  0     0  0
 16  8  2  0     0  0
 17 13  2  0     0  0
 18 12  1  0     0  0
 19  8  1  0     0  0
 20  7  1  0     0  0
 21  5  1  0     0  0
 22  6  1  0     0  0
 23 17  1  0     0  0
 24 18  1  0     0  0
 17 11  1  0     0  0
 14  6  1  0     0  0
M  END
>  <prID>
131

>  <IDDB>
32798

>  <pIC50_HIV_Integrase>
3.827981191

>  <Q>
0.597172677

>  <Activity_Integrase>
Inactive_Integrase

NA
NA
NA
NA
$$$$

  Accelrys05311914352D 1   1.00000     0.00000     0

 20 21  0     0  0            999 V2000
   -3.5000    0.3625    0.0000 C   0  0  0  0  0  0           0  0  0
    3.4958   -0.3583    0.0000 C   0  0  0  0  0  0           0  0  0
    2.6750   -0.3625    0.0000 C   0  0  0  0  0  0           0  0  0
   -2.6708    0.3625    0.0000 C   0  0  0  0  0  0           0  0  0
   -0.2042    0.3625    0.0000 S   0  0  0  0  0  0           0  0  0
    0.2000   -0.3542    0.0000 S   0  0  0  0  0  0           0  0  0
   -3.9208    1.0833    0.0000 O   0  0  0  0  0  0           0  0  0
    3.9000   -1.0750    0.0000 O   0  0  0  0  0  0           0  0  0
    2.2625    0.3542    0.0000 C   0  0  0  0  0  0           0  0  0
   -2.2625   -0.3542    0.0000 C   0  0  0  0  0  0           0  0  0
   -2.2625    1.0792    0.0000 C   0  0  0  0  0  0           0  0  0
    2.2583   -1.0708    0.0000 C   0  0  0  0  0  0           0  0  0
    1.0292   -0.3542    0.0000 C   0  0  0  0  0  0           0  0  0
   -1.0250    0.3625    0.0000 C   0  0  0  0  0  0           0  0  0
    3.9000    0.3542    0.0000 O   0  0  0  0  0  0           0  0  0
   -3.9208   -0.3500    0.0000 O   0  0  0  0  0  0           0  0  0
    1.4375   -1.0708    0.0000 C   0  0  0  0  0  0           0  0  0
    1.4375    0.3625    0.0000 C   0  0  0  0  0  0           0  0  0
   -1.4417   -0.3500    0.0000 C   0  0  0  0  0  0           0  0  0
   -1.4417    1.0750    0.0000 C   0  0  0  0  0  0           0  0  0
  2  3  1  0     0  0
  3  9  1  0     0  0
  4  1  1  0     0  0
  5 14  1  0     0  0
  6  5  1  0     0  0
  7  1  2  0     0  0
  8  2  2  0     0  0
  9 18  2  0     0  0
 10  4  1  0     0  0
 11  4  2  0     0  0
 12 17  1  0     0  0
 13  6  1  0     0  0
 14 20  2  0     0  0
 15  2  1  0     0  0
 16  1  1  0     0  0
 17 13  2  0     0  0
 18 13  1  0     0  0
 19 10  2  0     0  0
 20 11  1  0     0  0
 14 19  1  0     0  0
  3 12  2  0     0  0
M  END
>  <prID>
132

>  <IDDB>
32800

>  <pIC50_HIV_Integrase>
3.623423043

>  <Q>
1.500657649

>  <Activity_Integrase>
Inactive_Integrase

NA
NA
NA
NA
$$$$

  Accelrys05311914352D 1   1.00000     0.00000     0

 24 25  0     0  0            999 V2000
   -2.6750    0.3542    0.0000 C   0  0  0  0  0  0           0  0  0
    2.6750   -0.3708    0.0000 C   0  0  0  0  0  0           0  0  0
    2.2583   -1.0792    0.0000 C   0  0  0  0  0  0           0  0  0
   -2.2667    1.0708    0.0000 C   0  0  0  0  0  0           0  0  0
   -3.5000    0.3583    0.0000 C   0  0  0  0  0  0           0  0  0
    3.4958   -0.3667    0.0000 C   0  0  0  0  0  0           0  0  0
   -2.2625   -0.3583    0.0000 C   0  0  0  0  0  0           0  0  0
    2.2625    0.3458    0.0000 C   0  0  0  0  0  0           0  0  0
   -1.0250    0.3542    0.0000 C   0  0  0  0  0  0           0  0  0
    1.0250   -0.3583    0.0000 C   0  0  0  0  0  0           0  0  0
    0.2000   -0.3583    0.0000 S   0  0  0  0  0  0           0  0  0
   -0.2042    0.3542    0.0000 S   0  0  0  0  0  0           0  0  0
   -1.4417    1.0667    0.0000 C   0  0  0  0  0  0           0  0  0
    1.4375   -1.0792    0.0000 C   0  0  0  0  0  0           0  0  0
   -1.4417   -0.3583    0.0000 C   0  0  0  0  0  0           0  0  0
    1.4375    0.3583    0.0000 C   0  0  0  0  0  0           0  0  0
   -3.9208   -0.3583    0.0000 O   0  0  0  0  0  0           0  0  0
    3.9000    0.3500    0.0000 O   0  0  0  0  0  0           0  0  0
    3.9000   -1.0792    0.0000 O   0  0  0  0  0  0           0  0  0
   -3.8833    1.2000    0.0000 O   0  0  0  0  0  0           0  0  0
    2.6667    1.0667    0.0000 C   0  0  0  0  0  0           0  0  0
   -2.6792   -1.0708    0.0000 C   0  0  0  0  0  0           0  0  0
   -1.0375    1.7875    0.0000 C   0  0  0  0  0  0           0  0  0
    1.0167   -1.7833    0.0000 C   0  0  0  0  0  0           0  0  0
  2  8  1  0     0  0
  3 14  1  0     0  0
  4  1  2  0     0  0
  5  1  1  0     0  0
  6  2  1  0     0  0
  7  1  1  0     0  0
  8 16  2  0     0  0
  9 13  2  0     0  0
 10 11  1  0     0  0
 11 12  1  0     0  0
 12  9  1  0     0  0
 13  4  1  0     0  0
 14 10  2  0     0  0
 15  7  2  0     0  0
 16 10  1  0     0  0
 17  5  2  0     0  0
 18  6  2  0     0  0
 19  6  1  0     0  0
 20  5  1  0     0  0
 21  8  1  0     0  0
 22  7  1  0     0  0
 23 13  1  0     0  0
 24 14  1  0     0  0
  9 15  1  0     0  0
  2  3  2  0     0  0
M  END
>  <prID>
133

>  <IDDB>
32801

>  <pIC50_HIV_Integrase>
4.133712661

>  <Q>
0.575309681

>  <Activity_Integrase>
Inactive_Integrase

NA
NA
NA
NA
$$$$

  Accelrys05311914352D 1   1.00000     0.00000     0

 26 29  0     0  0            999 V2000
    7.4124    0.1875    0.0000 C   0  0  0  0  0  0           0  0  0
    6.6685   -0.2234    0.0000 C   0  0  0  0  0  0           0  0  0
    6.6500   -1.0750    0.0000 C   0  0  0  0  0  0           0  0  0
    7.3817   -1.5141    0.0000 C   0  0  0  0  0  0           0  0  0
    8.1227   -1.1008    0.0000 C   0  0  0  0  0  0           0  0  0
    8.1362   -0.2858    0.0000 C   0  0  0  0  0  0           0  0  0
    8.8528   -1.5356    0.0000 N   0  0  0  0  0  0           0  0  0
    9.5973   -1.1218    0.0000 C   0  0  0  0  0  0           0  0  0
    9.6072   -0.2685    0.0000 C   0  0  0  0  0  0           0  0  0
    8.8763    0.1626    0.0000 C   0  0  0  0  0  0           0  0  0
    7.3763   -2.3375    0.0000 O   0  0  0  0  0  0           0  0  0
    5.9416   -1.4792    0.0000 C   0  0  0  0  0  0           0  0  0
    5.2333   -1.0666    0.0000 C   0  0  0  0  0  0           0  0  0
    4.5249   -1.4708    0.0000 C   0  0  0  0  0  0           0  0  0
    5.9375   -2.2917    0.0000 O   0  0  0  0  0  0           0  0  0
    3.8166   -1.0708    0.0000 C   0  0  0  0  0  0           0  0  0
    3.1166   -1.4750    0.0000 C   0  0  0  0  0  0           0  0  0
    2.4124   -1.0708    0.0000 C   0  0  0  0  0  0           0  0  0
    5.2042   -0.2293    0.0000 C   0  0  0  0  0  0           0  0  0
    4.5291    0.1625    0.0000 C   0  0  0  0  0  0           0  0  0
    3.8166   -0.2542    0.0000 C   0  0  0  0  0  0           0  0  0
    1.7125   -1.4750    0.0000 C   0  0  0  0  0  0           0  0  0
    2.4124   -0.2584    0.0000 C   0  0  0  0  0  0           0  0  0
    1.0125   -1.0750    0.0000 C   0  0  0  0  0  0           0  0  0
    1.7083    0.1500    0.0000 C   0  0  0  0  0  0           0  0  0
    1.0083   -0.2626    0.0000 C   0  0  0  0  0  0           0  0  0
  6  1  1  0     0  0
  1  2  2  0     0  0
  2  3  1  0     0  0
  3  4  2  0     0  0
  5  7  1  0     0  0
  7  8  2  0     0  0
  8  9  1  0     0  0
  9 10  2  0     0  0
 10  6  1  0     0  0
  4  5  1  0     0  0
  4 11  1  0     0  0
  5  6  2  0     0  0
 12  3  1  0     0  0
 13 12  1  0     0  0
 14 13  2  0     0  0
 15 12  2  0     0  0
 16 14  1  0     0  0
 17 16  1  0     0  0
 18 17  1  0     0  0
 19 13  1  0     0  0
 20 19  2  0     0  0
 21 20  1  0     0  0
 22 18  1  0     0  0
 23 18  2  0     0  0
 24 22  2  0     0  0
 25 23  1  0     0  0
 26 24  1  0     0  0
 21 16  2  0     0  0
 26 25  2  0     0  0
M  END
>  <prID>
134

>  <IDDB>
32957

>  <pIC50_HIV_Integrase>
6.431798276

>  <Q>
1.090584626

>  <Activity_Integrase>
Active_Integrase

NA
NA
NA
NA
$$$$

  Accelrys05311914352D 1   1.00000     0.00000     0

 29 32  0     0  0            999 V2000
    3.3028   -3.2250    0.0000 C   0  0  0  0  0  0           0  0  0
    3.3016   -4.0357    0.0000 C   0  0  0  0  0  0           0  0  0
    4.0039   -4.4402    0.0000 C   0  0  0  0  0  0           0  0  0
    4.0021   -2.8205    0.0000 C   0  0  0  0  0  0           0  0  0
    6.0911   -4.6062    0.0000 C   0  0  3  0  0  0           0  0  0
    6.0872   -2.6460    0.0000 C   0  0  0  0  0  0           0  0  0
    5.2723   -2.6476    0.0000 C   0  0  3  0  0  0           0  0  0
    4.7008   -3.2213    0.0000 C   0  0  0  0  0  0           0  0  0
    4.7025   -4.0364    0.0000 C   0  0  0  0  0  0           0  0  0
    5.2761   -4.6079    0.0000 O   0  0  0  0  0  0           0  0  0
    6.6610   -3.2167    0.0000 C   0  0  0  0  0  0           0  0  0
    6.6625   -4.0326    0.0000 C   0  0  0  0  0  0           0  0  0
    7.3727   -4.4338    0.0000 C   0  0  0  0  0  0           0  0  0
    8.0778   -4.0162    0.0000 C   0  0  0  0  0  0           0  0  0
    8.0681   -3.2013    0.0000 C   0  0  0  0  0  0           0  0  0
    7.3573   -2.8038    0.0000 C   0  0  0  0  0  0           0  0  0
    5.9917   -3.4042    0.0000 O   0  0  0  0  0  0           0  0  0
    6.4875   -1.9417    0.0000 O   0  0  0  0  0  0           0  0  0
    3.9958   -5.2458    0.0000 O   0  0  0  0  0  0           0  0  0
    2.7208   -4.6042    0.0000 O   0  0  0  0  0  0           0  0  0
    7.3667   -5.2416    0.0000 O   0  0  0  0  0  0           0  0  0
    8.7750   -4.4209    0.0000 O   0  0  0  0  0  0           0  0  0
    8.7666   -2.7916    0.0000 O   0  0  0  0  0  0           0  0  0
    6.0834   -5.4125    0.0000 C   0  0  0  0  0  0           0  0  0
    5.1333   -1.8959    0.0000 C   0  0  0  0  0  0           0  0  0
    1.9125   -4.6042    0.0000 C   0  0  0  0  0  0           0  0  0
    9.5750   -2.7916    0.0000 C   0  0  0  0  0  0           0  0  0
    3.9958   -2.0084    0.0000 C   0  0  0  0  0  0           0  0  0
    3.2084   -1.7959    0.0000 O   0  0  0  0  0  0           0  0  0
 13 14  2  0     0  0
  8  4  2  0     0  0
 14 15  1  0     0  0
  4  1  1  0     0  0
 15 16  2  0     0  0
 16 11  1  0     0  0
 12  5  1  0     0  0
  7 17  1  0     0  0
  5 17  1  0     0  0
 11  6  1  0     0  0
  6 18  2  0     0  0
  6  7  1  0     0  0
  3 19  1  0     0  0
  7  8  1  0     0  0
  2 20  1  0     0  0
  8  9  1  0     0  0
 13 21  1  0     0  0
  9 10  1  0     0  0
 14 22  1  0     0  0
 10  5  1  0     0  0
 15 23  1  0     0  0
  5 24  1  0     0  0
  2  3  1  0     0  0
  7 25  1  0     0  0
 11 12  2  0     0  0
 20 26  1  0     0  0
  3  9  2  0     0  0
 23 27  1  0     0  0
 12 13  1  0     0  0
  4 28  1  0     0  0
  1  2  2  0     0  0
 28 29  1  0     0  0
M  END
>  <prID>
135

>  <IDDB>
35190

>  <pIC50_HIV_Integrase>
5.958607315

>  <Q>
-4.302234063

>  <Activity_Integrase>
Inactive_Integrase

NA
NA
NA
NA
$$$$

  Accelrys05311914352D 1   1.00000     0.00000     0

 23 25  0     0  0            999 V2000
    8.6458   -2.8125    0.0000 C   0  0  0  0  0  0           0  0  0
    7.2000   -2.8167    0.0000 C   0  0  0  0  0  0           0  0  0
    5.8459   -2.7250    0.0000 C   0  0  0  0  0  0           0  0  0
    8.7333   -3.6500    0.0000 N   0  0  0  0  0  0           0  0  0
    7.9167   -2.3916    0.0000 C   0  0  0  0  0  0           0  0  0
    5.7875   -3.5625    0.0000 O   0  0  0  0  0  0           0  0  0
    9.4125   -2.4708    0.0000 N   0  0  0  0  0  0           0  0  0
    6.4708   -2.4000    0.0000 C   0  0  0  0  0  0           0  0  0
    4.9750   -3.7791    0.0000 C   0  0  0  0  0  0           0  0  0
    5.0583   -2.4125    0.0000 C   0  0  0  0  0  0           0  0  0
    9.9750   -3.0959    0.0000 N   0  0  0  0  0  0           0  0  0
    9.5542   -3.8250    0.0000 C   0  0  0  0  0  0           0  0  0
    4.5250   -3.0625    0.0000 C   0  0  0  0  0  0           0  0  0
    6.4625   -1.5583    0.0000 O   0  0  0  0  0  0           0  0  0
    4.7250   -4.4500    0.0000 C   0  0  0  0  0  0           0  0  0
    7.9125   -1.5542    0.0000 O   0  0  0  0  0  0           0  0  0
    3.9042   -4.6583    0.0000 C   0  0  0  0  0  0           0  0  0
    2.3125   -5.0458    0.0000 C   0  0  0  0  0  0           0  0  0
    1.5083   -5.2500    0.0000 F   0  0  0  0  0  0           0  0  0
    2.9000   -5.6584    0.0000 C   0  0  0  0  0  0           0  0  0
    2.5458   -4.2375    0.0000 C   0  0  0  0  0  0           0  0  0
    3.7166   -5.4458    0.0000 C   0  0  0  0  0  0           0  0  0
    3.3667   -4.0375    0.0000 C   0  0  0  0  0  0           0  0  0
  2  5  2  0     0  0
  3  8  1  0     0  0
  4  1  1  0     0  0
  5  1  1  0     0  0
  6  3  1  0     0  0
  7  1  2  0     0  0
  8  2  1  0     0  0
  9  6  1  0     0  0
 10  3  2  0     0  0
 11  7  1  0     0  0
 12  4  2  0     0  0
 13 10  1  0     0  0
 14  8  2  0     0  0
 15  9  1  0     0  0
 16  5  1  0     0  0
 17 15  1  0     0  0
 18 20  1  0     0  0
 19 18  1  0     0  0
 20 22  2  0     0  0
 21 23  1  0     0  0
 22 17  1  0     0  0
 23 17  2  0     0  0
 11 12  1  0     0  0
 13  9  2  0     0  0
 18 21  2  0     0  0
M  END
>  <prID>
136

>  <IDDB>
35995

>  <pIC50_HIV_Integrase>
6.460409377

>  <Q>
-3.544196979

>  <Activity_Integrase>
Active_Integrase

NA
NA
NA
NA
$$$$

  Accelrys05311914352D 1   1.00000     0.00000     0

 10 11  0     0  0            999 V2000
    1.7203    0.0000    0.0000 C   0  0  0  0  0  0           0  0  0
    1.0274    0.9557    0.0000 N   0  0  0  0  0  0           0  0  0
    1.0274   -0.9497    0.0000 N   0  0  0  0  0  0           0  0  0
   -0.0956    0.5913    0.0000 C   0  0  0  0  0  0           0  0  0
   -0.0956   -0.5853    0.0000 C   0  0  0  0  0  0           0  0  0
    2.8969    0.0000    0.0000 N   0  0  0  0  0  0           0  0  0
   -1.1229    1.1887    0.0000 C   0  0  0  0  0  0           0  0  0
   -1.1229   -1.1767    0.0000 C   0  0  0  0  0  0           0  0  0
   -2.1324    0.5913    0.0000 C   0  0  0  0  0  0           0  0  0
   -2.1324   -0.5913    0.0000 C   0  0  0  0  0  0           0  0  0
  2  1  2  0     0  0
  3  1  1  0     0  0
  4  2  1  0     0  0
  5  3  1  0     0  0
  6  1  1  0     0  0
  7  4  1  0     0  0
  8  5  1  0     0  0
  9  7  2  0     0  0
 10  8  2  0     0  0
  4  5  2  0     0  0
  9 10  1  0     0  0
M  END
>  <prID>
137

>  <IDDB>
38772

>  <pIC50_HIV_Integrase>
3.522878745

>  <Q>
-1.8099532

>  <Activity_Integrase>
Inactive_Integrase

NA
NA
NA
NA
$$$$

  Accelrys05311914352D 1   1.00000     0.00000     0

 27 28  0     0  0            999 V2000
    4.2875    0.0167    0.0000 C   0  0  0  0  0  0           0  0  0
   -4.2875   -0.0125    0.0000 C   0  0  0  0  0  0           0  0  0
   -1.4292    0.0000    0.0000 C   0  0  0  0  0  0           0  0  0
    1.4250    0.0042    0.0000 C   0  0  0  0  0  0           0  0  0
   -2.1500    0.4042    0.0000 C   0  0  0  0  0  0           0  0  0
    2.1375    0.4250    0.0000 C   0  0  0  0  0  0           0  0  0
    4.2875   -0.8167    0.0000 C   0  0  0  0  0  0           0  0  0
   -4.2875   -0.8375    0.0000 C   0  0  0  0  0  0           0  0  0
    0.7125    0.4208    0.0000 C   0  0  0  0  0  0           0  0  0
   -0.7167    0.4167    0.0000 C   0  0  0  0  0  0           0  0  0
    0.0000    0.0000    0.0000 C   0  0  0  0  0  0           0  0  0
    3.5708    0.4250    0.0000 C   0  0  0  0  0  0           0  0  0
   -3.5750    0.4000    0.0000 C   0  0  0  0  0  0           0  0  0
   -2.8625   -0.0125    0.0000 C   0  0  0  0  0  0           0  0  0
    2.8583    0.0167    0.0000 C   0  0  0  0  0  0           0  0  0
   -0.7208    1.2417    0.0000 O   0  0  0  0  0  0           0  0  0
    0.7083    1.2417    0.0000 O   0  0  0  0  0  0           0  0  0
   -3.5750   -1.2500    0.0000 C   0  0  0  0  0  0           0  0  0
    3.5708   -1.2333    0.0000 C   0  0  0  0  0  0           0  0  0
   -2.8625   -0.8375    0.0000 C   0  0  0  0  0  0           0  0  0
    2.8583   -0.8167    0.0000 C   0  0  0  0  0  0           0  0  0
    5.0000    0.4292    0.0000 O   0  0  0  0  0  0           0  0  0
   -5.0000    0.4000    0.0000 O   0  0  0  0  0  0           0  0  0
    5.0000   -1.2208    0.0000 O   0  0  0  0  0  0           0  0  0
   -5.0000   -1.2500    0.0000 O   0  0  0  0  0  0           0  0  0
    5.0000    1.2583    0.0000 C   0  0  0  0  0  0           0  0  0
   -5.0000    1.2250    0.0000 C   0  0  0  0  0  0           0  0  0
  2 13  1  0     0  0
  3 10  1  0     0  0
  4  6  2  0     0  0
  5  3  2  0     0  0
  6 15  1  0     0  0
  7  1  1  0     0  0
  8 18  1  0     0  0
  9  4  1  0     0  0
 10 11  1  0     0  0
 11  9  1  0     0  0
 12  1  2  0     0  0
 13 14  2  0     0  0
 14  5  1  0     0  0
 15 12  1  0     0  0
 16 10  2  0     0  0
 17  9  2  0     0  0
 18 20  2  0     0  0
 19  7  2  0     0  0
 20 14  1  0     0  0
 21 19  1  0     0  0
 22  1  1  0     0  0
 23  2  1  0     0  0
 24  7  1  0     0  0
 25  8  1  0     0  0
 26 22  1  0     0  0
 27 23  1  0     0  0
 21 15  2  0     0  0
  8  2  2  0     0  0
M  END
>  <prID>
138

>  <IDDB>
40146

>  <pIC50_HIV_Integrase>
4.1259059865

>  <Q>
-0.50422137

>  <Activity_Integrase>
Inactive_Integrase

NA
NA
NA
NA
$$$$

  Accelrys05311914352D 1   1.00000     0.00000     0

 29 32  0     0  0            999 V2000
    3.3069   -3.2250    0.0000 C   0  0  0  0  0  0           0  0  0
    3.3057   -4.0357    0.0000 C   0  0  0  0  0  0           0  0  0
    4.0081   -4.4402    0.0000 C   0  0  0  0  0  0           0  0  0
    4.0063   -2.8205    0.0000 C   0  0  0  0  0  0           0  0  0
    6.0952   -4.6062    0.0000 C   0  0  3  0  0  0           0  0  0
    6.0913   -2.6460    0.0000 C   0  0  0  0  0  0           0  0  0
    5.2764   -2.6476    0.0000 C   0  0  3  0  0  0           0  0  0
    4.7049   -3.2213    0.0000 C   0  0  0  0  0  0           0  0  0
    4.7066   -4.0364    0.0000 C   0  0  0  0  0  0           0  0  0
    5.2802   -4.6079    0.0000 O   0  0  0  0  0  0           0  0  0
    6.6652   -3.2167    0.0000 C   0  0  0  0  0  0           0  0  0
    6.6667   -4.0326    0.0000 C   0  0  0  0  0  0           0  0  0
    7.3768   -4.4338    0.0000 C   0  0  0  0  0  0           0  0  0
    8.0819   -4.0204    0.0000 C   0  0  0  0  0  0           0  0  0
    8.0722   -3.2013    0.0000 C   0  0  0  0  0  0           0  0  0
    7.3614   -2.8038    0.0000 C   0  0  0  0  0  0           0  0  0
    5.9958   -3.4042    0.0000 O   0  0  0  0  0  0           0  0  0
    6.4917   -1.9417    0.0000 O   0  0  0  0  0  0           0  0  0
    4.0000   -5.2458    0.0000 O   0  0  0  0  0  0           0  0  0
    2.7249   -4.6042    0.0000 O   0  0  0  0  0  0           0  0  0
    7.3708   -5.2416    0.0000 O   0  0  0  0  0  0           0  0  0
    8.7792   -4.4209    0.0000 O   0  0  0  0  0  0           0  0  0
    8.7708   -2.7916    0.0000 O   0  0  0  0  0  0           0  0  0
    6.0875   -5.4125    0.0000 C   0  0  0  0  0  0           0  0  0
    5.1374   -1.8959    0.0000 C   0  0  0  0  0  0           0  0  0
    1.9167   -4.6042    0.0000 C   0  0  0  0  0  0           0  0  0
    9.5791   -2.7916    0.0000 C   0  0  0  0  0  0           0  0  0
    4.0000   -2.0084    0.0000 C   0  0  0  0  0  0           0  0  0
    3.2125   -1.7959    0.0000 O   0  0  0  0  0  0           0  0  0
 13 14  2  0     0  0
  8  4  2  0     0  0
 14 15  1  0     0  0
  4  1  1  0     0  0
 15 16  2  0     0  0
 16 11  1  0     0  0
 12  5  1  0     0  0
  7 17  1  0     0  0
  5 17  1  0     0  0
 11  6  1  0     0  0
  6 18  2  0     0  0
  6  7  1  0     0  0
  3 19  1  0     0  0
  7  8  1  0     0  0
  2 20  1  0     0  0
  8  9  1  0     0  0
 13 21  1  0     0  0
  9 10  1  0     0  0
 14 22  1  0     0  0
 10  5  1  0     0  0
 15 23  1  0     0  0
  5 24  1  0     0  0
  2  3  1  0     0  0
  7 25  1  0     0  0
 11 12  2  0     0  0
 20 26  1  0     0  0
  3  9  2  0     0  0
 23 27  1  0     0  0
 12 13  1  0     0  0
  4 28  1  0     0  0
  1  2  2  0     0  0
 28 29  2  0     0  0
M  END
>  <prID>
139

>  <IDDB>
40812

>  <pIC50_HIV_Integrase>
5.602059991

>  <Q>
-3.331041142

>  <Activity_Integrase>
Inactive_Integrase

NA
NA
NA
NA
$$$$

  Accelrys05311914352D 1   1.00000     0.00000     0

 25 28  0     0  0            999 V2000
    0.1000   -0.1417    0.0000 C   0  0  3  0  0  0           0  0  0
    0.8083    0.0833    0.0000 C   0  0  0  0  0  0           0  0  0
   -0.6542   -0.1792    0.0000 C   0  0  0  0  0  0           0  0  0
    0.8083    0.8375    0.0000 C   0  0  0  0  0  0           0  0  0
   -0.8542   -0.9000    0.0000 C   0  0  0  0  0  0           0  0  0
    0.1000    1.0667    0.0000 C   0  0  3  0  0  0           0  0  0
   -0.2250   -1.3083    0.0000 C   0  0  3  0  0  0           0  0  0
   -0.3417    0.4667    0.0000 C   0  0  0  0  0  0           0  0  0
    0.3583   -0.8417    0.0000 C   0  0  0  0  0  0           0  0  0
    1.4583   -0.2917    0.0000 C   0  0  0  0  0  0           0  0  0
   -1.1833    0.3458    0.0000 C   0  0  0  0  0  0           0  0  0
    1.4583    1.2083    0.0000 C   0  0  0  0  0  0           0  0  0
   -1.5708   -1.0958    0.0000 C   0  0  0  0  0  0           0  0  0
    2.1042    0.0833    0.0000 C   0  0  0  0  0  0           0  0  0
   -1.9042    0.1583    0.0000 C   0  0  0  0  0  0           0  0  0
    2.1042    0.8375    0.0000 C   0  0  0  0  0  0           0  0  0
   -2.1000   -0.5708    0.0000 C   0  0  0  0  0  0           0  0  0
    2.7583   -0.2958    0.0000 O   0  0  0  0  0  0           0  0  0
   -2.4208    0.6917    0.0000 O   0  0  0  0  0  0           0  0  0
    2.7583    1.2208    0.0000 O   0  0  0  0  0  0           0  0  0
   -2.8333   -0.7708    0.0000 O   0  0  0  0  0  0           0  0  0
    0.1792   -1.9417    0.0000 C   0  0  0  0  0  0           0  0  0
   -0.7417   -1.8583    0.0000 C   0  0  0  0  0  0           0  0  0
    0.3208    1.7833    0.0000 C   0  0  0  0  0  0           0  0  0
   -0.5417    1.4667    0.0000 C   0  0  0  0  0  0           0  0  0
  2  1  1  0     0  0
  3  1  1  0     0  0
  4  2  2  0     0  0
  5  3  2  0     0  0
  6  8  1  0     0  0
  7  9  1  0     0  0
  8  1  1  0     0  0
  9  1  1  0     0  0
 10  2  1  0     0  0
 11  3  1  0     0  0
 12  4  1  0     0  0
 13  5  1  0     0  0
 14 10  2  0     0  0
 15 11  2  0     0  0
 16 14  1  0     0  0
 17 15  1  0     0  0
 18 14  1  0     0  0
 19 15  1  0     0  0
 20 16  1  0     0  0
 21 17  1  0     0  0
 22  7  1  0     0  0
 23  7  1  0     0  0
 24  6  1  0     0  0
 25  6  1  0     0  0
  7  5  1  0     0  0
  6  4  1  0     0  0
 17 13  2  0     0  0
 16 12  2  0     0  0
M  END
>  <prID>
140

>  <IDDB>
42494

>  <pIC50_HIV_Integrase>
5.301029996

>  <Q>
-2.940368005

>  <Activity_Integrase>
Inactive_Integrase

NA
NA
NA
NA
$$$$

  Accelrys05311914352D 1   1.00000     0.00000     0

 71 79  0     0  0            999 V2000
   -0.1250   -0.8458    0.0000 C   0  0  0  0  0  0           0  0  0
   -0.1458    1.4292    0.0000 C   0  0  0  0  0  0           0  0  0
   -1.5750   -0.0042    0.0000 C   0  0  0  0  0  0           0  0  0
   -1.5625    0.6000    0.0000 C   0  0  0  0  0  0           0  0  0
   -0.1292   -1.4500    0.0000 C   0  0  0  0  0  0           0  0  0
   -0.1500    2.0292    0.0000 C   0  0  0  0  0  0           0  0  0
    0.3792    1.1292    0.0000 C   0  0  0  0  0  0           0  0  0
    0.3958   -0.5417    0.0000 C   0  0  0  0  0  0           0  0  0
   -2.1000   -0.3000    0.0000 C   0  0  0  0  0  0           0  0  0
   -2.0833    0.9083    0.0000 C   0  0  0  0  0  0           0  0  0
    0.3875   -1.7542    0.0000 C   0  0  0  0  0  0           0  0  0
    0.3750    2.3375    0.0000 C   0  0  0  0  0  0           0  0  0
   -2.6167    0.0125    0.0000 C   0  0  0  0  0  0           0  0  0
    0.9125   -1.4542    0.0000 C   0  0  0  0  0  0           0  0  0
    0.9000    2.0375    0.0000 C   0  0  0  0  0  0           0  0  0
    0.9000    1.4250    0.0000 C   0  0  0  0  0  0           0  0  0
    0.9167   -0.8500    0.0000 C   0  0  0  0  0  0           0  0  0
   -2.6042    0.6167    0.0000 C   0  0  0  0  0  0           0  0  0
   -3.1375   -0.2833    0.0000 C   0  0  0  0  0  0           0  0  0
    1.4333   -1.7500    0.0000 C   0  0  0  0  0  0           0  0  0
    1.4208    2.3417    0.0000 C   0  0  0  0  0  0           0  0  0
   -3.6583    0.0250    0.0000 C   0  0  0  0  0  0           0  0  0
    1.9542   -1.4583    0.0000 C   0  0  0  0  0  0           0  0  0
    1.9500    2.0333    0.0000 C   0  0  0  0  0  0           0  0  0
    1.4250   -2.3458    0.0000 C   0  0  0  0  0  0           0  0  0
   -3.1375   -0.8833    0.0000 C   0  0  0  0  0  0           0  0  0
    1.4208    2.9500    0.0000 C   0  0  0  0  0  0           0  0  0
   -4.1792   -0.2792    0.0000 O   0  0  0  0  0  0           0  0  0
    2.4667   -1.7583    0.0000 O   0  0  0  0  0  0           0  0  0
    2.4792    2.3333    0.0000 O   0  0  0  0  0  0           0  0  0
    1.4375   -0.5500    0.0000 C   0  0  0  0  0  0           0  0  0
   -3.1250    0.9208    0.0000 C   0  0  0  0  0  0           0  0  0
    1.4208    1.1250    0.0000 C   0  0  0  0  0  0           0  0  0
    1.9375   -2.6500    0.0000 C   0  0  0  0  0  0           0  0  0
   -3.6583   -1.1833    0.0000 C   0  0  0  0  0  0           0  0  0
    1.9542    3.2542    0.0000 C   0  0  0  0  0  0           0  0  0
   -4.1792   -0.8833    0.0000 C   0  0  1  0  0  0           0  0  0
    2.4583   -2.3583    0.0000 C   0  0  1  0  0  0           0  0  0
    2.4792    2.9458    0.0000 C   0  0  1  0  0  0           0  0  0
    0.3792    0.5250    0.0000 O   0  0  0  0  0  0           0  0  0
    0.3917    0.0625    0.0000 O   0  0  0  0  0  0           0  0  0
    0.3667    2.9417    0.0000 O   0  0  0  0  0  0           0  0  0
   -2.0833    1.5167    0.0000 O   0  0  0  0  0  0           0  0  0
    0.3833   -2.3542    0.0000 O   0  0  0  0  0  0           0  0  0
   -2.1042   -0.9000    0.0000 O   0  0  0  0  0  0           0  0  0
    1.9458    1.4250    0.0000 C   0  0  0  0  0  0           0  0  0
    1.9583   -0.8583    0.0000 C   0  0  0  0  0  0           0  0  0
   -3.6542    0.6250    0.0000 C   0  0  0  0  0  0           0  0  0
   -0.6750    2.3333    0.0000 O   0  0  0  0  0  0           0  0  0
   -0.6542   -1.7458    0.0000 O   0  0  0  0  0  0           0  0  0
   -5.2208   -2.6875    0.0000 C   0  0  0  0  0  0           0  0  0
    3.5000   -4.1625    0.0000 C   0  0  0  0  0  0           0  0  0
    3.5125    4.7583    0.0000 C   0  0  0  0  0  0           0  0  0
    2.9958    4.4542    0.0000 C   0  0  0  0  0  0           0  0  0
   -4.7042   -2.3875    0.0000 C   0  0  0  0  0  0           0  0  0
    2.9792   -3.8583    0.0000 C   0  0  0  0  0  0           0  0  0
   -4.7042   -1.7875    0.0000 C   0  0  0  0  0  0           0  0  0
    3.0000    3.8583    0.0000 C   0  0  0  0  0  0           0  0  0
    2.9792   -3.2583    0.0000 C   0  0  0  0  0  0           0  0  0
   -4.1833   -1.4875    0.0000 C   0  0  0  0  0  0           0  0  0
    2.4792    3.5500    0.0000 C   0  0  0  0  0  0           0  0  0
    2.4583   -2.9583    0.0000 C   0  0  0  0  0  0           0  0  0
    2.9792   -2.0500    0.0000 C   0  0  0  0  0  0           0  0  0
    3.0000    2.6417    0.0000 C   0  0  0  0  0  0           0  0  0
   -4.7042   -0.5792    0.0000 C   0  0  0  0  0  0           0  0  0
   -5.7500   -2.3833    0.0000 C   0  0  0  0  0  0           0  0  0
   -5.2208   -3.2875    0.0000 C   0  0  0  0  0  0           0  0  0
    3.5000   -4.7625    0.0000 C   0  0  0  0  0  0           0  0  0
    3.9250   -3.7333    0.0000 C   0  0  0  0  0  0           0  0  0
    3.5083    5.3583    0.0000 C   0  0  0  0  0  0           0  0  0
    4.0333    4.4583    0.0000 C   0  0  0  0  0  0           0  0  0
  2  4  1  0     0  0
  3  1  1  0     0  0
  4  3  2  0     0  0
  5  1  2  0     0  0
  6  2  2  0     0  0
  7  2  1  0     0  0
  8  1  1  0     0  0
  9  3  1  0     0  0
 10  4  1  0     0  0
 11  5  1  0     0  0
 12  6  1  0     0  0
 13  9  1  0     0  0
 14 11  1  0     0  0
 15 12  1  0     0  0
 16  7  1  0     0  0
 17  8  1  0     0  0
 18 13  2  0     0  0
 19 13  1  0     0  0
 20 14  1  0     0  0
 21 15  1  0     0  0
 22 19  2  0     0  0
 23 20  2  0     0  0
 24 21  2  0     0  0
 25 20  1  0     0  0
 26 19  1  0     0  0
 27 21  1  0     0  0
 28 22  1  0     0  0
 29 23  1  0     0  0
 30 24  1  0     0  0
 31 17  1  0     0  0
 32 18  1  0     0  0
 33 16  1  0     0  0
 34 25  2  0     0  0
 35 26  2  0     0  0
 36 27  2  0     0  0
 37 35  1  0     0  0
 38 34  1  0     0  0
 39 36  1  0     0  0
 40  7  2  0     0  0
 41  8  2  0     0  0
 42 12  2  0     0  0
 43 10  2  0     0  0
 44 11  2  0     0  0
 45  9  2  0     0  0
 46 33  2  0     0  0
 47 31  2  0     0  0
 48 32  2  0     0  0
 49  6  1  0     0  0
 50  5  1  0     0  0
 51 55  2  0     0  0
 52 56  2  0     0  0
 53 54  2  0     0  0
 54 58  1  0     0  0
 55 57  1  0     0  0
 56 59  1  0     0  0
 57 60  1  0     0  0
 58 61  1  0     0  0
 59 62  1  0     0  0
 37 60  1  1     0  0
 39 61  1  1     0  0
 38 62  1  6     0  0
 38 63  1  1     0  0
 39 64  1  6     0  0
 37 65  1  6     0  0
 66 51  1  0     0  0
 67 51  1  0     0  0
 68 52  1  0     0  0
 69 52  1  0     0  0
 70 53  1  0     0  0
 71 53  1  0     0  0
 14 17  2  0     0  0
 23 47  1  0     0  0
 18 10  1  0     0  0
 15 16  2  0     0  0
 48 22  1  0     0  0
 38 29  1  0     0  0
 37 28  1  0     0  0
 24 46  1  0     0  0
 39 30  1  0     0  0
M  END
>  <prID>
141

>  <IDDB>
42742

>  <pIC50_HIV_Integrase>
5.853871964

>  <Q>
-3.330448101

>  <Activity_Integrase>
Inactive_Integrase

NA
NA
NA
NA
$$$$

  Accelrys05311914352D 1   1.00000     0.00000     0

 31 33  0     0  0            999 V2000
    4.8875   -1.7333    0.0000 C   0  0  0  0  0  0           0  0  0
    5.6292   -2.0625    0.0000 C   0  0  0  0  0  0           0  0  0
    4.1917   -2.1375    0.0000 C   0  0  0  0  0  0           0  0  0
    4.9709   -0.9292    0.0000 C   0  0  0  0  0  0           0  0  0
    6.1625   -1.4625    0.0000 N   0  0  3  0  0  0           0  0  0
    4.1750   -3.2500    0.0000 C   0  0  1  0  0  0           0  0  0
    5.7583   -0.7666    0.0000 C   0  0  1  0  0  0           0  0  0
    3.4833   -3.6584    0.0000 C   0  0  1  0  0  0           0  0  0
    3.4833   -4.4708    0.0000 C   0  0  2  0  0  0           0  0  0
    4.1750   -4.8625    0.0000 C   0  0  0  0  0  0           0  0  0
    4.8708   -4.4708    0.0000 C   0  0  0  0  0  0           0  0  0
    4.8708   -3.6584    0.0000 C   0  0  1  0  0  0           0  0  0
    6.0291   -2.6500    0.0000 O   0  0  0  0  0  0           0  0  0
    2.7875   -3.2583    0.0000 C   0  0  0  0  0  0           0  0  0
    4.4125   -0.3583    0.0000 O   0  0  0  0  0  0           0  0  0
    2.7917   -4.8709    0.0000 C   0  0  0  0  0  0           0  0  0
    3.4958   -1.7291    0.0000 O   0  0  0  0  0  0           0  0  0
    5.7042   -3.4334    0.0000 C   0  0  0  0  0  0           0  0  0
    6.4000   -3.9458    0.0000 C   0  0  0  0  0  0           0  0  0
    6.9500   -1.6667    0.0000 C   0  0  0  0  0  0           0  0  0
    6.1709   -0.0583    0.0000 C   0  0  0  0  0  0           0  0  0
    2.0916   -3.6667    0.0000 C   0  0  0  0  0  0           0  0  0
    4.8791   -2.8542    0.0000 C   0  0  0  0  0  0           0  0  0
    2.0958   -4.4708    0.0000 C   0  0  1  0  0  0           0  0  0
    6.9708   -0.0583    0.0000 O   0  0  0  0  0  0           0  0  0
    7.2208   -3.5209    0.0000 C   0  0  0  0  0  0           0  0  0
    1.4042   -4.8709    0.0000 C   0  0  0  0  0  0           0  0  0
    3.4875   -2.8542    0.0000 H   0  0  0  0  0  0           0  0  0
    3.4958   -5.2667    0.0000 H   0  0  0  0  0  0           0  0  0
    8.0208   -3.9833    0.0000 C   0  0  0  0  0  0           0  0  0
    8.8167   -3.5167    0.0000 C   0  0  0  0  0  0           0  0  0
  3  1  2  0     0  0
  4  1  1  0     0  0
  5  2  1  0     0  0
  6  3  1  0     0  0
  7  4  1  0     0  0
  8  6  1  0     0  0
  9  8  1  0     0  0
 10 11  2  0     0  0
 11 12  1  0     0  0
 12  6  1  0     0  0
 13  2  2  0     0  0
 14  8  1  0     0  0
 15  4  2  0     0  0
 16  9  1  0     0  0
 17  3  1  0     0  0
 12 18  1  6     0  0
 19 18  1  0     0  0
 20  5  1  0     0  0
  7 21  1  6     0  0
 22 14  1  0     0  0
  6 23  1  1     0  0
 24 22  1  0     0  0
 25 21  1  0     0  0
 26 19  1  0     0  0
 24 27  1  6     0  0
  8 28  1  6     0  0
  9 29  1  1     0  0
  5  7  1  0     0  0
 10  9  1  0     0  0
 24 16  1  0     0  0
 26 30  1  0     0  0
  2  1  1  0     0  0
 30 31  1  0     0  0
M  END
>  <prID>
142

>  <IDDB>
43940

>  <pIC50_HIV_Integrase>
5.301029996

>  <Q>
-4.578538722

>  <Activity_Integrase>
Inactive_Integrase

NA
NA
NA
NA
$$$$

  Accelrys05311914352D 1   1.00000     0.00000     0

 35 37  0     0  0            999 V2000
    0.5417    1.3167    0.0000 C   0  0  0  0  0  0           0  0  0
   -1.1917    1.3167    0.0000 C   0  0  0  0  0  0           0  0  0
   -0.3208    0.8167    0.0000 C   0  0  0  0  0  0           0  0  0
    0.5417    2.3167    0.0000 C   0  0  0  0  0  0           0  0  0
    1.4083    0.8167    0.0000 C   0  0  0  0  0  0           0  0  0
   -0.3208    2.8167    0.0000 C   0  0  0  0  0  0           0  0  0
   -1.1917    2.3167    0.0000 C   0  0  0  0  0  0           0  0  0
    1.4083   -0.1833    0.0000 C   0  0  0  0  0  0           0  0  0
    0.5417   -1.6792    0.0000 C   0  0  0  0  0  0           0  0  0
    1.4083   -2.1792    0.0000 C   0  0  0  0  0  0           0  0  0
    0.5417   -0.6833    0.0000 C   0  0  0  0  0  0           0  0  0
    2.2750   -1.6833    0.0000 C   0  0  0  0  0  0           0  0  0
    2.2750   -0.6833    0.0000 C   0  0  0  0  0  0           0  0  0
   -1.1917   -4.6792    0.0000 C   0  0  0  0  0  0           0  0  0
   -4.6458    1.3167    0.0000 C   0  0  0  0  0  0           0  0  0
   -2.0583    2.8167    0.0000 O   0  0  0  0  0  0           0  0  0
    2.2750    1.3167    0.0000 C   0  0  0  0  0  0           0  0  0
   -2.0583   -5.1792    0.0000 O   0  0  0  0  0  0           0  0  0
   -5.5167    0.8167    0.0000 O   0  0  0  0  0  0           0  0  0
   -2.9208    1.3167    0.0000 N   0  0  0  0  0  0           0  0  0
   -0.3208   -3.1792    0.0000 N   0  0  0  0  0  0           0  0  0
   -2.0583    0.8167    0.0000 C   0  0  0  0  0  0           0  0  0
   -0.3208   -2.1792    0.0000 C   0  0  0  0  0  0           0  0  0
    1.4083   -3.1792    0.0000 O   0  0  0  0  0  0           0  0  0
   -4.6458    2.3167    0.0000 O   0  0  0  0  0  0           0  0  0
   -0.3208   -5.1792    0.0000 O   0  0  0  0  0  0           0  0  0
   -0.3208    3.8125    0.0000 C   0  0  0  0  0  0           0  0  0
   -1.1917   -3.6792    0.0000 C   0  0  0  0  0  0           0  0  0
   -3.7917    0.8167    0.0000 C   0  0  0  0  0  0           0  0  0
    3.1375   -2.1833    0.0000 C   0  0  0  0  0  0           0  0  0
    2.2750    2.3167    0.0000 C   0  0  0  0  0  0           0  0  0
    3.1375    0.8208    0.0000 C   0  0  0  0  0  0           0  0  0
    3.1375    2.8167    0.0000 C   0  0  0  0  0  0           0  0  0
    4.0042    1.3208    0.0000 C   0  0  0  0  0  0           0  0  0
    4.0042    2.3208    0.0000 C   0  0  0  0  0  0           0  0  0
  2  3  2  0     0  0
  3  1  1  0     0  0
  4  1  1  0     0  0
  5  1  2  0     0  0
  6  4  2  0     0  0
  7  6  1  0     0  0
  8  5  1  0     0  0
  9 11  1  0     0  0
 10 12  1  0     0  0
 11  8  2  0     0  0
 12 13  2  0     0  0
 13  8  1  0     0  0
 14 28  1  0     0  0
 15 29  1  0     0  0
 16  7  2  0     0  0
 17  5  1  0     0  0
 18 14  2  0     0  0
 19 15  2  0     0  0
 20 22  1  0     0  0
 21 23  1  0     0  0
 22  2  1  0     0  0
 23  9  1  0     0  0
 24 10  1  0     0  0
 25 15  1  0     0  0
 26 14  1  0     0  0
 27  6  1  0     0  0
 28 21  1  0     0  0
 29 20  1  0     0  0
 30 12  1  0     0  0
 31 17  2  0     0  0
 32 17  1  0     0  0
 33 31  1  0     0  0
 34 32  2  0     0  0
 35 34  1  0     0  0
  7  2  1  0     0  0
 35 33  2  0     0  0
 10  9  2  0     0  0
M  END
>  <prID>
143

>  <IDDB>
44064

>  <pIC50_HIV_Integrase>
4.779891912

>  <Q>
-2.838905771

>  <Activity_Integrase>
Inactive_Integrase

NA
NA
NA
NA
$$$$

  Accelrys05311914352D 1   1.00000     0.00000     0

 30 32  0     0  0            999 V2000
    0.3402   -1.5000    0.0000 C   0  0  0  0  0  0           0  0  0
    0.3391   -2.3273    0.0000 C   0  0  0  0  0  0           0  0  0
    1.0539   -2.7402    0.0000 C   0  0  0  0  0  0           0  0  0
    1.0521   -1.0872    0.0000 C   0  0  0  0  0  0           0  0  0
    1.7675   -1.4963    0.0000 C   0  0  0  0  0  0           0  0  0
    1.7682   -2.3232    0.0000 C   0  0  0  0  0  0           0  0  0
    2.4835   -2.7341    0.0000 N   0  0  3  0  0  0           0  0  0
    3.1986   -2.3194    0.0000 C   0  0  0  0  0  0           0  0  0
    3.1938   -1.4894    0.0000 C   0  0  0  0  0  0           0  0  0
    2.4779   -1.0822    0.0000 C   0  0  0  0  0  0           0  0  0
    2.4792   -3.5583    0.0000 C   0  0  0  0  0  0           0  0  0
    3.9042   -1.0708    0.0000 C   0  0  0  0  0  0           0  0  0
    4.6167   -1.4833    0.0000 N   0  0  0  0  0  0           0  0  0
    3.9000   -0.2458    0.0000 O   0  0  0  0  0  0           0  0  0
    3.9083   -2.7292    0.0000 O   0  0  0  0  0  0           0  0  0
    5.3292   -1.0667    0.0000 C   0  0  0  0  0  0           0  0  0
    6.0458   -1.4783    0.0000 C   0  0  0  0  0  0           0  0  0
    6.7578   -1.0624    0.0000 C   0  0  0  0  0  0           0  0  0
    6.7537   -0.2361    0.0000 C   0  0  0  0  0  0           0  0  0
    6.0316    0.1724    0.0000 C   0  0  0  0  0  0           0  0  0
    5.3225   -0.2459    0.0000 C   0  0  0  0  0  0           0  0  0
    2.4708   -0.2542    0.0000 O   0  0  0  0  0  0           0  0  0
    3.1917   -3.9708    0.0000 C   0  0  0  0  0  0           0  0  0
    6.0375   -2.3000    0.0000 O   0  0  0  0  0  0           0  0  0
    3.9042   -3.5542    0.0000 C   0  0  0  0  0  0           0  0  0
    4.6167   -3.9667    0.0000 C   0  0  0  0  0  0           0  0  0
    5.3292   -3.5500    0.0000 C   0  0  0  0  0  0           0  0  0
    6.0250    1.0000    0.0000 N   0  3  0  0  0  0           0  0  0
    6.7375    1.4167    0.0000 O   0  0  0  0  0  0           0  0  0
    5.3083    1.4125    0.0000 O   0  5  0  0  0  0           0  0  0
  6  7  1  0     0  0
  8 15  2  0     0  0
  1  2  2  0     0  0
 13 16  1  0     0  0
  7  8  1  0     0  0
 16 17  2  0     0  0
  5  4  2  0     0  0
 17 18  1  0     0  0
  8  9  1  0     0  0
 18 19  2  0     0  0
  4  1  1  0     0  0
 19 20  1  0     0  0
  9 10  2  0     0  0
 20 21  2  0     0  0
 21 16  1  0     0  0
 10  5  1  0     0  0
 10 22  1  0     0  0
 11 23  1  0     0  0
  7 11  1  0     0  0
 17 24  1  0     0  0
  2  3  1  0     0  0
 23 25  1  0     0  0
  9 12  1  0     0  0
 25 26  1  0     0  0
  5  6  1  0     0  0
 26 27  1  0     0  0
 12 13  1  0     0  0
 20 28  1  0     0  0
  3  6  2  0     0  0
 28 29  2  0     0  0
 12 14  2  0     0  0
 28 30  1  0     0  0
M  CHG  2  28   1  30  -1
M  END
>  <prID>
144

>  <IDDB>
47344

>  <pIC50_HIV_Integrase>
5.045757491

>  <Q>
-2.347919537

>  <Activity_Integrase>
Inactive_Integrase

NA
NA
NA
NA
$$$$

  Accelrys05311914262D 1   1.00000     0.00000     0

 26 28  0     0  0            999 V2000
   -0.4958    0.0625    0.0000 C   0  0  0  0  0  0           0  0  0
   -0.4958   -0.7583    0.0000 C   0  0  0  0  0  0           0  0  0
   -1.2125    0.4792    0.0000 C   0  0  0  0  0  0           0  0  0
   -1.2125   -1.1708    0.0000 N   0  0  3  0  0  0           0  0  0
    0.2167    0.4792    0.0000 C   0  0  0  0  0  0           0  0  0
   -1.9250    0.0625    0.0000 C   0  0  0  0  0  0           0  0  0
   -1.9250   -0.7583    0.0000 C   0  0  0  0  0  0           0  0  0
    0.9292    0.0625    0.0000 N   0  0  0  0  0  0           0  0  0
    1.6500    0.4792    0.0000 C   0  0  0  0  0  0           0  0  0
    1.6417    1.3000    0.0000 C   0  0  0  0  0  0           0  0  0
    0.2250   -1.1792    0.0000 O   0  0  0  0  0  0           0  0  0
    0.2167    1.3000    0.0000 O   0  0  0  0  0  0           0  0  0
    2.3625    0.0625    0.0000 C   0  0  0  0  0  0           0  0  0
   -1.2125    1.3000    0.0000 O   0  0  0  0  0  0           0  0  0
    3.0750    0.4833    0.0000 C   0  0  0  0  0  0           0  0  0
    2.3542    1.7167    0.0000 C   0  0  0  0  0  0           0  0  0
   -1.2083   -2.0000    0.0000 C   0  0  0  0  0  0           0  0  0
   -2.6375    0.4792    0.0000 C   0  0  0  0  0  0           0  0  0
    3.0750    1.3042    0.0000 C   0  0  0  0  0  0           0  0  0
    2.3500    2.5417    0.0000 Cl  0  0  0  0  0  0           0  0  0
   -2.6375   -1.1708    0.0000 C   0  0  0  0  0  0           0  0  0
    2.3625   -0.7583    0.0000 O   0  0  0  0  0  0           0  0  0
    1.6500   -1.1708    0.0000 C   0  0  0  0  0  0           0  0  0
   -0.4958   -2.4083    0.0000 C   0  0  0  0  0  0           0  0  0
   -3.3583    0.0625    0.0000 C   0  0  0  0  0  0           0  0  0
   -3.3583   -0.7583    0.0000 C   0  0  0  0  0  0           0  0  0
  2  1  1  0     0  0
  3  1  2  0     0  0
  4  2  1  0     0  0
  5  1  1  0     0  0
  6  3  1  0     0  0
  7  4  1  0     0  0
  8  5  1  0     0  0
  9  8  1  0     0  0
 10  9  1  0     0  0
 11  2  2  0     0  0
 12  5  2  0     0  0
 13  9  2  0     0  0
 14  3  1  0     0  0
 15 13  1  0     0  0
 16 10  2  0     0  0
 17  4  1  0     0  0
 18  6  2  0     0  0
 19 16  1  0     0  0
 20 16  1  0     0  0
 21  7  2  0     0  0
 22 13  1  0     0  0
 23 22  1  0     0  0
 24 17  1  0     0  0
 25 18  1  0     0  0
 26 21  1  0     0  0
  7  6  1  0     0  0
 26 25  2  0     0  0
 19 15  2  0     0  0
M  END
>  <prID>
145

>  <IDDB>
47439

>  <pIC50_HIV_Integrase>
4.721246399

>  <Q>
-1.798018467

>  <Activity_Integrase>
Inactive_Integrase

NA
NA
NA
NA
$$$$

  Accelrys05311914332D 1   1.00000     0.00000     0

 14 15  0     0  0            999 V2000
    1.7792    0.6833    0.0000 C   0  0  0  0  0  0           0  0  0
    1.0708    0.2625    0.0000 C   0  0  0  0  0  0           0  0  0
    0.3583    0.6792    0.0000 C   0  0  0  0  0  0           0  0  0
   -0.3583    0.2667    0.0000 C   0  0  0  0  0  0           0  0  0
   -0.3625   -0.5583    0.0000 C   0  0  0  0  0  0           0  0  0
    1.7750    1.5042    0.0000 O   0  0  0  0  0  0           0  0  0
   -1.0667   -0.9667    0.0000 C   0  0  0  0  0  0           0  0  0
    1.0667   -0.5625    0.0000 C   0  0  0  0  0  0           0  0  0
    0.3500   -0.9708    0.0000 C   0  0  0  0  0  0           0  0  0
   -1.0667    0.6833    0.0000 C   0  0  0  0  0  0           0  0  0
   -1.7833   -0.5583    0.0000 C   0  0  0  0  0  0           0  0  0
    2.4917    0.2667    0.0000 O   0  0  0  0  0  0           0  0  0
   -1.7833    0.2667    0.0000 C   0  0  0  0  0  0           0  0  0
   -2.5000   -0.9667    0.0000 O   0  0  0  0  0  0           0  0  0
  2  1  1  0     0  0
  3  2  2  0     0  0
  4  3  1  0     0  0
  5  9  1  0     0  0
  6  1  2  0     0  0
  7  5  1  0     0  0
  8  2  1  0     0  0
  9  8  2  0     0  0
 10  4  1  0     0  0
 11  7  2  0     0  0
 12  1  1  0     0  0
 13 10  2  0     0  0
 14 11  1  0     0  0
  5  4  2  0     0  0
 11 13  1  0     0  0
M  END
>  <prID>
146

>  <IDDB>
50663

>  <pIC50_HIV_Integrase>
3.763714723

>  <Q>
-0.511677831

>  <Activity_Integrase>
Inactive_Integrase

NA
NA
NA
NA
$$$$

  Accelrys05311914332D 1   1.00000     0.00000     0

 15 16  0     0  0            999 V2000
   -0.1917    0.2208    0.0000 C   0  0  0  0  0  0           0  0  0
    1.9417    0.6333    0.0000 C   0  0  0  0  0  0           0  0  0
    1.2375    0.2167    0.0000 C   0  0  0  0  0  0           0  0  0
   -1.6125    0.2208    0.0000 C   0  0  0  0  0  0           0  0  0
   -1.6125   -0.6000    0.0000 C   0  0  0  0  0  0           0  0  0
    0.5208    0.6333    0.0000 C   0  0  0  0  0  0           0  0  0
   -0.9000    0.6417    0.0000 C   0  0  0  0  0  0           0  0  0
   -0.1958   -0.6000    0.0000 C   0  0  0  0  0  0           0  0  0
   -0.9000   -1.0125    0.0000 C   0  0  0  0  0  0           0  0  0
    1.9375    1.4625    0.0000 O   0  0  0  0  0  0           0  0  0
    1.2333   -0.6083    0.0000 C   0  0  0  0  0  0           0  0  0
    0.5167   -1.0167    0.0000 C   0  0  0  0  0  0           0  0  0
    2.6583    0.2208    0.0000 O   0  0  0  0  0  0           0  0  0
   -2.3292    0.6333    0.0000 O   0  0  0  0  0  0           0  0  0
   -2.3292   -1.0125    0.0000 O   0  0  0  0  0  0           0  0  0
  2  3  1  0     0  0
  3  6  2  0     0  0
  4  7  2  0     0  0
  5  4  1  0     0  0
  6  1  1  0     0  0
  7  1  1  0     0  0
  8  1  2  0     0  0
  9  8  1  0     0  0
 10  2  2  0     0  0
 11  3  1  0     0  0
 12  8  1  0     0  0
 13  2  1  0     0  0
 14  4  1  0     0  0
 15  5  1  0     0  0
  5  9  2  0     0  0
 11 12  2  0     0  0
M  END
>  <prID>
147

>  <IDDB>
50664

>  <pIC50_HIV_Integrase>
5.327902142

>  <Q>
-1.326347109

>  <Activity_Integrase>
Inactive_Integrase

NA
NA
NA
NA
$$$$

  Accelrys05311914332D 1   1.00000     0.00000     0

 15 16  0     0  0            999 V2000
   -0.2875   -0.4375    0.0000 C   0  0  0  0  0  0           0  0  0
   -0.9958   -0.8458    0.0000 C   0  0  0  0  0  0           0  0  0
   -0.2833    0.3875    0.0000 C   0  0  0  0  0  0           0  0  0
    1.8500    0.8000    0.0000 C   0  0  0  0  0  0           0  0  0
    1.1375    0.3833    0.0000 C   0  0  0  0  0  0           0  0  0
    0.4292    0.8000    0.0000 C   0  0  0  0  0  0           0  0  0
    0.4208   -0.8500    0.0000 C   0  0  0  0  0  0           0  0  0
   -1.7083   -0.4375    0.0000 C   0  0  0  0  0  0           0  0  0
    1.1375   -0.4417    0.0000 C   0  0  0  0  0  0           0  0  0
    1.8458    1.6208    0.0000 O   0  0  0  0  0  0           0  0  0
   -0.9958    0.8000    0.0000 C   0  0  0  0  0  0           0  0  0
   -1.7083    0.3875    0.0000 C   0  0  0  0  0  0           0  0  0
   -1.0042   -1.6708    0.0000 O   0  0  0  0  0  0           0  0  0
    2.5625    0.3875    0.0000 O   0  0  0  0  0  0           0  0  0
   -2.4250   -0.8458    0.0000 O   0  0  0  0  0  0           0  0  0
  2  1  1  0     0  0
  3  1  2  0     0  0
  4  5  1  0     0  0
  5  9  1  0     0  0
  6  3  1  0     0  0
  7  1  1  0     0  0
  8  2  2  0     0  0
  9  7  2  0     0  0
 10  4  2  0     0  0
 11  3  1  0     0  0
 12  8  1  0     0  0
 13  2  1  0     0  0
 14  4  1  0     0  0
 15  8  1  0     0  0
  5  6  2  0     0  0
 12 11  2  0     0  0
M  END
>  <prID>
148

>  <IDDB>
50665

>  <pIC50_HIV_Integrase>
4.20481541

>  <Q>
-1.334386316

>  <Activity_Integrase>
Inactive_Integrase

NA
NA
NA
NA
$$$$

  Accelrys05311914332D 1   1.00000     0.00000     0

 16 17  0     0  0            999 V2000
   -0.4917   -0.4875    0.0000 C   0  0  0  0  0  0           0  0  0
   -1.2000   -0.9000    0.0000 C   0  0  0  0  0  0           0  0  0
   -0.4875    0.3375    0.0000 C   0  0  0  0  0  0           0  0  0
    1.6458    0.7500    0.0000 C   0  0  0  0  0  0           0  0  0
    0.9375    0.3292    0.0000 C   0  0  0  0  0  0           0  0  0
    0.2208    0.7458    0.0000 C   0  0  0  0  0  0           0  0  0
    0.2167   -0.9000    0.0000 C   0  0  0  0  0  0           0  0  0
   -1.9125   -0.4875    0.0000 C   0  0  0  0  0  0           0  0  0
    0.9333   -0.4958    0.0000 C   0  0  0  0  0  0           0  0  0
    1.6375    1.5750    0.0000 O   0  0  0  0  0  0           0  0  0
   -1.2000    0.7542    0.0000 C   0  0  0  0  0  0           0  0  0
   -1.9125    0.3375    0.0000 C   0  0  0  0  0  0           0  0  0
   -1.2083   -1.7208    0.0000 O   0  0  0  0  0  0           0  0  0
    2.3583    0.3375    0.0000 O   0  0  0  0  0  0           0  0  0
   -2.6292   -0.9000    0.0000 O   0  0  0  0  0  0           0  0  0
    3.0708    0.7542    0.0000 C   0  0  0  0  0  0           0  0  0
  2  1  1  0     0  0
  3  1  2  0     0  0
  4  5  1  0     0  0
  5  9  1  0     0  0
  6  3  1  0     0  0
  7  1  1  0     0  0
  8  2  2  0     0  0
  9  7  2  0     0  0
 10  4  2  0     0  0
 11  3  1  0     0  0
 12  8  1  0     0  0
 13  2  1  0     0  0
 14  4  1  0     0  0
 15  8  1  0     0  0
 16 14  1  0     0  0
  5  6  2  0     0  0
 12 11  2  0     0  0
M  END
>  <prID>
149

>  <IDDB>
50668

>  <pIC50_HIV_Integrase>
4.278189385

>  <Q>
-0.712413012

>  <Activity_Integrase>
Inactive_Integrase

NA
NA
NA
NA
$$$$

  Accelrys05311914332D 1   1.00000     0.00000     0

 33 36  0     0  0            999 V2000
    4.0875    0.1750    0.0000 C   0  0  0  0  0  0           0  0  0
   -4.0917    0.1667    0.0000 C   0  0  0  0  0  0           0  0  0
   -2.0417    0.5500    0.0000 C   0  0  0  0  0  0           0  0  0
    2.0458    0.5625    0.0000 C   0  0  0  0  0  0           0  0  0
   -2.7208    0.1625    0.0000 C   0  0  0  0  0  0           0  0  0
    2.7292    0.1708    0.0000 C   0  0  0  0  0  0           0  0  0
    5.4500    0.1667    0.0000 C   0  0  0  0  0  0           0  0  0
   -5.4542    0.1792    0.0000 C   0  0  0  0  0  0           0  0  0
    5.4458   -0.6167    0.0000 C   0  0  0  0  0  0           0  0  0
   -5.4625   -0.6083    0.0000 C   0  0  0  0  0  0           0  0  0
   -3.4083    0.5583    0.0000 C   0  0  0  0  0  0           0  0  0
    3.4083    0.5667    0.0000 C   0  0  0  0  0  0           0  0  0
    4.7667    0.5667    0.0000 C   0  0  0  0  0  0           0  0  0
   -4.7708    0.5625    0.0000 C   0  0  0  0  0  0           0  0  0
   -4.0958   -0.6208    0.0000 C   0  0  0  0  0  0           0  0  0
    4.0875   -0.6125    0.0000 C   0  0  0  0  0  0           0  0  0
    4.7625   -1.0083    0.0000 C   0  0  0  0  0  0           0  0  0
   -4.7833   -1.0083    0.0000 C   0  0  0  0  0  0           0  0  0
   -2.0417    1.3417    0.0000 O   0  0  0  0  0  0           0  0  0
    2.0417    1.3500    0.0000 O   0  0  0  0  0  0           0  0  0
    2.7250   -0.6167    0.0000 C   0  0  0  0  0  0           0  0  0
   -2.7250   -0.6250    0.0000 C   0  0  0  0  0  0           0  0  0
   -3.4167   -1.0125    0.0000 C   0  0  0  0  0  0           0  0  0
    3.4042   -1.0125    0.0000 C   0  0  0  0  0  0           0  0  0
    1.3667    0.1667    0.0000 N   0  0  0  0  0  0           0  0  0
   -1.3542    0.1583    0.0000 N   0  0  0  0  0  0           0  0  0
    6.1250   -1.0125    0.0000 O   0  0  0  0  0  0           0  0  0
    6.1250    0.5667    0.0000 O   0  0  0  0  0  0           0  0  0
   -6.1375    0.5750    0.0000 O   0  0  0  0  0  0           0  0  0
   -6.1458   -0.9958    0.0000 O   0  0  0  0  0  0           0  0  0
    0.0042    0.1625    0.0000 C   0  0  0  0  0  0           0  0  0
   -0.6750    0.5500    0.0000 C   0  0  0  0  0  0           0  0  0
    0.6875    0.5583    0.0000 C   0  0  0  0  0  0           0  0  0
  2 11  1  0     0  0
  3 26  1  0     0  0
  4  6  1  0     0  0
  5  3  1  0     0  0
  6 12  2  0     0  0
  7 13  2  0     0  0
  8 14  2  0     0  0
  9  7  1  0     0  0
 10 18  2  0     0  0
 11  5  2  0     0  0
 12  1  1  0     0  0
 13  1  1  0     0  0
 14  2  1  0     0  0
 15 23  1  0     0  0
 16  1  2  0     0  0
 17 16  1  0     0  0
 18 15  1  0     0  0
 19  3  2  0     0  0
 20  4  2  0     0  0
 21  6  1  0     0  0
 22  5  1  0     0  0
 23 22  2  0     0  0
 24 16  1  0     0  0
 25  4  1  0     0  0
 26 32  1  0     0  0
 27  9  1  0     0  0
 28  7  1  0     0  0
 29  8  1  0     0  0
 30 10  1  0     0  0
 31 33  1  0     0  0
 32 31  1  0     0  0
 33 25  1  0     0  0
  9 17  2  0     0  0
 21 24  2  0     0  0
 15  2  2  0     0  0
 10  8  1  0     0  0
M  END
>  <prID>
150

>  <IDDB>
50675

>  <pIC50_HIV_Integrase>
6.091514981

>  <Q>
-3.12880384

>  <Activity_Integrase>
Active_Integrase

NA
NA
NA
NA
$$$$

  Accelrys05311914332D 1   1.00000     0.00000     0

 33 36  0     0  0            999 V2000
    4.0875   -0.4708    0.0000 C   0  0  0  0  0  0           0  0  0
   -4.0958   -0.4792    0.0000 C   0  0  0  0  0  0           0  0  0
    4.7625   -0.8625    0.0000 C   0  0  0  0  0  0           0  0  0
   -4.7833   -0.8667    0.0000 C   0  0  0  0  0  0           0  0  0
    4.0917    0.3167    0.0000 C   0  0  0  0  0  0           0  0  0
   -4.0917    0.3083    0.0000 C   0  0  0  0  0  0           0  0  0
   -2.0417    0.6958    0.0000 C   0  0  0  0  0  0           0  0  0
    2.0500    0.7042    0.0000 C   0  0  0  0  0  0           0  0  0
   -2.7208    0.3042    0.0000 C   0  0  0  0  0  0           0  0  0
    2.7292    0.3125    0.0000 C   0  0  0  0  0  0           0  0  0
   -3.4083    0.7000    0.0000 C   0  0  0  0  0  0           0  0  0
    3.4083    0.7125    0.0000 C   0  0  0  0  0  0           0  0  0
    3.4042   -0.8667    0.0000 C   0  0  0  0  0  0           0  0  0
   -3.4167   -0.8667    0.0000 C   0  0  0  0  0  0           0  0  0
    5.4458   -0.4750    0.0000 C   0  0  0  0  0  0           0  0  0
   -5.4625   -0.4667    0.0000 C   0  0  0  0  0  0           0  0  0
   -2.7250   -0.4833    0.0000 C   0  0  0  0  0  0           0  0  0
    2.7250   -0.4750    0.0000 C   0  0  0  0  0  0           0  0  0
   -2.0417    1.4833    0.0000 O   0  0  0  0  0  0           0  0  0
    2.0417    1.4958    0.0000 O   0  0  0  0  0  0           0  0  0
    4.7708    0.7083    0.0000 C   0  0  0  0  0  0           0  0  0
   -4.7708    0.7083    0.0000 C   0  0  0  0  0  0           0  0  0
   -5.4542    0.3208    0.0000 C   0  0  0  0  0  0           0  0  0
    5.4500    0.3125    0.0000 C   0  0  0  0  0  0           0  0  0
    1.3667    0.3083    0.0000 N   0  0  0  0  0  0           0  0  0
   -1.3542    0.3000    0.0000 N   0  0  0  0  0  0           0  0  0
    4.7583   -1.6500    0.0000 O   0  0  0  0  0  0           0  0  0
   -4.7875   -1.6542    0.0000 O   0  0  0  0  0  0           0  0  0
    6.1250   -0.8667    0.0000 O   0  0  0  0  0  0           0  0  0
   -6.1458   -0.8542    0.0000 O   0  0  0  0  0  0           0  0  0
    0.0083    0.3042    0.0000 C   0  0  0  0  0  0           0  0  0
   -0.6750    0.6958    0.0000 C   0  0  0  0  0  0           0  0  0
    0.6875    0.7000    0.0000 C   0  0  0  0  0  0           0  0  0
  2 14  1  0     0  0
  3  1  1  0     0  0
  4  2  1  0     0  0
  5  1  2  0     0  0
  6 11  1  0     0  0
  7 26  1  0     0  0
  8 10  1  0     0  0
  9  7  1  0     0  0
 10 18  1  0     0  0
 11  9  2  0     0  0
 12  5  1  0     0  0
 13  1  1  0     0  0
 14 17  2  0     0  0
 15  3  2  0     0  0
 16  4  2  0     0  0
 17  9  1  0     0  0
 18 13  2  0     0  0
 19  7  2  0     0  0
 20  8  2  0     0  0
 21  5  1  0     0  0
 22  6  1  0     0  0
 23 22  2  0     0  0
 24 15  1  0     0  0
 25  8  1  0     0  0
 26 32  1  0     0  0
 27  3  1  0     0  0
 28  4  1  0     0  0
 29 15  1  0     0  0
 30 16  1  0     0  0
 31 33  1  0     0  0
 32 31  1  0     0  0
 33 25  1  0     0  0
 10 12  2  0     0  0
 24 21  2  0     0  0
  2  6  2  0     0  0
 16 23  1  0     0  0
M  END
>  <prID>
151

>  <IDDB>
50677

>  <pIC50_HIV_Integrase>
6.958607315

>  <Q>
-3.144881828

>  <Activity_Integrase>
Active_Integrase

NA
NA
NA
NA
$$$$

  Accelrys05311914332D 1   1.00000     0.00000     0

 19 20  0     0  0            999 V2000
   -1.7792    0.2792    0.0000 C   0  0  0  0  0  0           0  0  0
   -1.0667    0.6958    0.0000 C   0  0  0  0  0  0           0  0  0
   -1.7792   -0.5458    0.0000 C   0  0  0  0  0  0           0  0  0
    1.8958    0.2875    0.0000 C   0  0  0  0  0  0           0  0  0
   -1.0708    1.5208    0.0000 O   0  0  0  0  0  0           0  0  0
   -0.3542    0.2833    0.0000 N   0  0  0  0  0  0           0  0  0
    1.8917   -0.5375    0.0000 C   0  0  0  0  0  0           0  0  0
    0.4708    0.2833    0.0000 N   0  0  0  0  0  0           0  0  0
   -1.0667   -0.9583    0.0000 O   0  0  0  0  0  0           0  0  0
    1.1750   -0.9417    0.0000 O   0  0  0  0  0  0           0  0  0
    1.1833    0.7000    0.0000 C   0  0  0  0  0  0           0  0  0
   -2.4875    0.6958    0.0000 C   0  0  0  0  0  0           0  0  0
    2.6042    0.7000    0.0000 C   0  0  0  0  0  0           0  0  0
   -2.4875   -0.9542    0.0000 C   0  0  0  0  0  0           0  0  0
    2.6000   -0.9500    0.0000 C   0  0  0  0  0  0           0  0  0
   -3.2000    0.2792    0.0000 C   0  0  0  0  0  0           0  0  0
    3.3167    0.2833    0.0000 C   0  0  0  0  0  0           0  0  0
   -3.2000   -0.5458    0.0000 C   0  0  0  0  0  0           0  0  0
    3.3167   -0.5417    0.0000 C   0  0  0  0  0  0           0  0  0
  2  1  1  0     0  0
  3  1  2  0     0  0
  4 11  1  0     0  0
  5  2  2  0     0  0
  6  2  1  0     0  0
  7  4  1  0     0  0
  8  6  1  0     0  0
  9  3  1  0     0  0
 10  7  1  0     0  0
 11  8  1  0     0  0
 12  1  1  0     0  0
 13  4  2  0     0  0
 14  3  1  0     0  0
 15  7  2  0     0  0
 16 12  2  0     0  0
 17 13  1  0     0  0
 18 16  1  0     0  0
 19 17  2  0     0  0
 18 14  2  0     0  0
 19 15  1  0     0  0
M  END
>  <prID>
152

>  <IDDB>
50680

>  <pIC50_HIV_Integrase>
5.283996656

>  <Q>
-1.854639049

>  <Activity_Integrase>
Inactive_Integrase

NA
NA
NA
NA
$$$$

  Accelrys05311914332D 1   1.00000     0.00000     0

 24 26  0     0  0            999 V2000
   -1.1042    0.2500    0.0000 C   0  0  0  0  0  0           0  0  0
    2.5375    0.2333    0.0000 C   0  0  0  0  0  0           0  0  0
   -0.3958    0.6667    0.0000 C   0  0  0  0  0  0           0  0  0
    1.8375    0.6625    0.0000 C   0  0  0  0  0  0           0  0  0
   -1.8167    0.6667    0.0000 C   0  0  0  0  0  0           0  0  0
   -1.1042   -0.5750    0.0000 C   0  0  0  0  0  0           0  0  0
    0.3167    0.2542    0.0000 N   0  0  0  0  0  0           0  0  0
    1.1417    0.2542    0.0000 N   0  0  0  0  0  0           0  0  0
   -1.8167   -0.9833    0.0000 C   0  0  0  0  0  0           0  0  0
   -2.5292    0.2500    0.0000 C   0  0  0  0  0  0           0  0  0
   -2.5292   -0.5750    0.0000 C   0  0  0  0  0  0           0  0  0
    2.5292   -0.5917    0.0000 C   0  0  0  0  0  0           0  0  0
   -0.4000    1.4917    0.0000 O   0  0  0  0  0  0           0  0  0
    1.8375    1.4458    0.0000 O   0  0  0  0  0  0           0  0  0
   -0.3958   -0.9875    0.0000 O   0  0  0  0  0  0           0  0  0
    1.8083   -1.0000    0.0000 O   0  0  0  0  0  0           0  0  0
    3.2583    0.6417    0.0000 C   0  0  0  0  0  0           0  0  0
   -3.2417    0.6625    0.0000 C   0  0  0  0  0  0           0  0  0
   -3.2417   -0.9875    0.0000 C   0  0  0  0  0  0           0  0  0
    3.2333   -1.0125    0.0000 C   0  0  0  0  0  0           0  0  0
    3.9667    0.2167    0.0000 C   0  0  0  0  0  0           0  0  0
   -3.9542   -0.5750    0.0000 C   0  0  0  0  0  0           0  0  0
   -3.9542    0.2500    0.0000 C   0  0  0  0  0  0           0  0  0
    3.9542   -0.6125    0.0000 C   0  0  0  0  0  0           0  0  0
  2  4  1  0     0  0
  3  1  1  0     0  0
  4  8  1  0     0  0
  5  1  1  0     0  0
  6  1  2  0     0  0
  7  3  1  0     0  0
  8  7  1  0     0  0
  9  6  1  0     0  0
 10  5  2  0     0  0
 11  9  2  0     0  0
 12  2  1  0     0  0
 13  3  2  0     0  0
 14  4  2  0     0  0
 15  6  1  0     0  0
 16 12  1  0     0  0
 17  2  2  0     0  0
 18 10  1  0     0  0
 19 11  1  0     0  0
 20 12  2  0     0  0
 21 17  1  0     0  0
 22 19  2  0     0  0
 23 18  2  0     0  0
 24 21  2  0     0  0
 11 10  1  0     0  0
 22 23  1  0     0  0
 24 20  1  0     0  0
M  END
>  <prID>
153

>  <IDDB>
50684

>  <pIC50_HIV_Integrase>
5.958607315

>  <Q>
-1.48182519

>  <Activity_Integrase>
Inactive_Integrase

NA
NA
NA
NA
$$$$

  Accelrys05311914332D 1   1.00000     0.00000     0

 20 21  0     0  0            999 V2000
    1.8375    0.2083    0.0000 C   0  0  0  0  0  0           0  0  0
   -1.8375    0.2042    0.0000 C   0  0  0  0  0  0           0  0  0
    1.1208    0.6208    0.0000 C   0  0  0  0  0  0           0  0  0
   -1.1208    0.6208    0.0000 C   0  0  0  0  0  0           0  0  0
   -0.4125    0.2042    0.0000 N   0  0  0  0  0  0           0  0  0
    0.4125    0.2042    0.0000 N   0  0  0  0  0  0           0  0  0
    1.8333   -0.6167    0.0000 C   0  0  0  0  0  0           0  0  0
   -1.8375   -0.6167    0.0000 C   0  0  0  0  0  0           0  0  0
    1.1167    1.4458    0.0000 O   0  0  0  0  0  0           0  0  0
   -1.1333    1.4458    0.0000 O   0  0  0  0  0  0           0  0  0
    1.1167   -1.0167    0.0000 S   0  0  0  0  0  0           0  0  0
   -1.1208   -1.0333    0.0000 O   0  0  0  0  0  0           0  0  0
    2.5458    0.6208    0.0000 C   0  0  0  0  0  0           0  0  0
   -2.5458    0.6167    0.0000 C   0  0  0  0  0  0           0  0  0
    2.5375   -1.0250    0.0000 C   0  0  0  0  0  0           0  0  0
   -2.5458   -1.0333    0.0000 C   0  0  0  0  0  0           0  0  0
   -3.2625    0.2042    0.0000 C   0  0  0  0  0  0           0  0  0
    3.2583    0.2042    0.0000 C   0  0  0  0  0  0           0  0  0
   -3.2625   -0.6167    0.0000 C   0  0  0  0  0  0           0  0  0
    3.2583   -0.6167    0.0000 C   0  0  0  0  0  0           0  0  0
  2  4  1  0     0  0
  3  1  1  0     0  0
  4  5  1  0     0  0
  5  6  1  0     0  0
  6  3  1  0     0  0
  7  1  1  0     0  0
  8  2  2  0     0  0
  9  3  2  0     0  0
 10  4  2  0     0  0
 11  7  1  0     0  0
 12  8  1  0     0  0
 13  1  2  0     0  0
 14  2  1  0     0  0
 15  7  2  0     0  0
 16  8  1  0     0  0
 17 14  2  0     0  0
 18 13  1  0     0  0
 19 17  1  0     0  0
 20 18  2  0     0  0
 20 15  1  0     0  0
 19 16  2  0     0  0
M  END
>  <prID>
154

>  <IDDB>
50688

>  <pIC50_HIV_Integrase>
5.236572006

>  <Q>
0.468387036

>  <Activity_Integrase>
Inactive_Integrase

NA
NA
NA
NA
$$$$

  Accelrys05311914332D 1   1.00000     0.00000     0

 11 11  0     0  0            999 V2000
   -0.1417    0.1875    0.0000 C   0  0  0  0  0  0           0  0  0
    0.5708    0.6042    0.0000 C   0  0  0  0  0  0           0  0  0
   -0.1417   -0.6375    0.0000 C   0  0  0  0  0  0           0  0  0
    0.5625    1.4292    0.0000 O   0  0  0  0  0  0           0  0  0
    1.2833    0.1875    0.0000 N   0  0  0  0  0  0           0  0  0
    0.5708   -1.0500    0.0000 S   0  0  0  0  0  0           0  0  0
    2.1042    0.1875    0.0000 N   0  0  0  0  0  0           0  0  0
   -0.8500    0.6000    0.0000 C   0  0  0  0  0  0           0  0  0
   -0.8500   -1.0500    0.0000 C   0  0  0  0  0  0           0  0  0
   -1.5667    0.1875    0.0000 C   0  0  0  0  0  0           0  0  0
   -1.5667   -0.6375    0.0000 C   0  0  0  0  0  0           0  0  0
  2  1  1  0     0  0
  3  1  2  0     0  0
  4  2  2  0     0  0
  5  2  1  0     0  0
  6  3  1  0     0  0
  7  5  1  0     0  0
  8  1  1  0     0  0
  9  3  1  0     0  0
 10  8  2  0     0  0
 11 10  1  0     0  0
 11  9  2  0     0  0
M  END
>  <prID>
155

>  <IDDB>
50689

>  <pIC50_HIV_Integrase>
4.301029996

>  <Q>
0.322042567

>  <Activity_Integrase>
Inactive_Integrase

NA
NA
NA
NA
$$$$

  Accelrys05311914332D 1   1.00000     0.00000     0

 47 52  0     0  0            999 V2000
    7.3208   -4.6583    0.0000 C   0  0  3  0  0  0           0  0  0
    8.8000   -4.6583    0.0000 C   0  0  0  0  0  0           0  0  0
    5.8417   -4.6583    0.0000 C   0  0  0  0  0  0           0  0  0
    8.0583   -4.2333    0.0000 C   0  0  0  0  0  0           0  0  0
    6.5833   -4.2333    0.0000 C   0  0  0  0  0  0           0  0  0
    7.3208   -5.5125    0.0000 C   0  0  3  0  0  0           0  0  0
    5.8417   -5.5125    0.0000 C   0  0  0  0  0  0           0  0  0
    9.5375   -4.2333    0.0000 C   0  0  0  0  0  0           0  0  0
    8.8000   -5.5125    0.0000 C   0  0  3  0  0  0           0  0  0
   10.2792   -4.6583    0.0000 C   0  0  0  0  0  0           0  0  0
    9.5375   -5.9375    0.0000 C   0  0  3  0  0  0           0  0  0
   10.2792   -5.5125    0.0000 C   0  0  0  0  0  0           0  0  0
    6.5833   -5.9375    0.0000 C   0  0  3  0  0  0           0  0  0
    8.0583   -5.9375    0.0000 C   0  0  0  0  0  0           0  0  0
    5.1042   -4.2333    0.0000 C   0  0  0  0  0  0           0  0  0
    4.4677   -4.8119    0.0000 N   0  0  0  0  0  0           0  0  0
    6.5875   -3.3416    0.0000 O   0  0  0  0  0  0           0  0  0
    9.5375   -3.3792    0.0000 O   0  0  0  0  0  0           0  0  0
    6.5833   -6.7917    0.0000 N   0  0  3  0  0  0           0  0  0
    2.9014   -5.0741    0.0000 N   0  0  0  0  0  0           0  0  0
   11.0125   -4.2333    0.0000 C   0  0  0  0  0  0           0  0  0
    7.3208   -3.8042    0.0000 O   0  0  0  0  0  0           0  0  0
    3.7062   -4.5082    0.0000 C   0  0  0  0  0  0           0  0  0
    5.0958   -3.4625    0.0000 O   0  0  0  0  0  0           0  0  0
    8.0583   -3.3792    0.0000 O   0  0  0  0  0  0           0  0  0
    5.1042   -5.9375    0.0000 O   0  0  0  0  0  0           0  0  0
    8.9958   -6.5542    0.0000 O   0  0  0  0  0  0           0  0  0
   11.0167   -5.9375    0.0000 C   0  0  0  0  0  0           0  0  0
   10.3083   -6.4625    0.0000 C   0  0  0  0  0  0           0  0  0
   11.0125   -3.3792    0.0000 O   0  0  0  0  0  0           0  0  0
   11.7542   -5.5125    0.0000 C   0  0  0  0  0  0           0  0  0
   11.7542   -4.6583    0.0000 C   0  0  0  0  0  0           0  0  0
    7.3208   -7.2208    0.0000 C   0  0  0  0  0  0           0  0  0
    5.8417   -7.2208    0.0000 C   0  0  0  0  0  0           0  0  0
    1.5120   -3.9388    0.0000 N   0  0  3  0  0  0           0  0  0
    1.5165   -4.6375    0.0000 C   0  0  3  0  0  0           0  0  0
    2.2106   -3.9344    0.0000 C   0  0  0  0  0  0           0  0  0
    0.9099   -3.5875    0.0000 C   0  0  3  0  0  0           0  0  0
    0.3116   -4.6457    0.0000 S   0  0  0  0  0  0           0  0  0
    0.3030   -3.9467    0.0000 C   0  0  3  0  0  0           0  0  0
    0.9048   -2.8972    0.0000 C   0  0  0  0  0  0           0  0  0
    2.7080   -3.4366    0.0000 O   0  0  0  0  0  0           0  0  0
    0.2949   -2.5412    0.0000 O   0  0  0  0  0  0           0  0  0
    1.5160   -2.5385    0.0000 O   0  0  0  0  0  0           0  0  0
   -0.1790   -3.3445    0.0000 C   0  0  0  0  0  0           0  0  0
   -0.4592   -4.3211    0.0000 C   0  0  0  0  0  0           0  0  0
    2.2388   -4.6064    0.0000 C   0  0  3  0  0  0           0  0  0
 13  7  1  0     0  0
 14  6  1  0     0  0
 15 16  1  0     0  0
 16 23  1  0     0  0
 17  5  2  0     0  0
 18  8  2  0     0  0
 19 13  1  0     0  0
 21 10  2  0     0  0
 22  1  1  0     0  0
 23 20  1  0     0  0
 24 15  2  0     0  0
 25  4  1  0     0  0
 26  7  1  0     0  0
 27 11  1  0     0  0
 28 12  2  0     0  0
 29 11  1  0     0  0
 30 21  1  0     0  0
 31 28  1  0     0  0
 32 21  1  0     0  0
 33 19  1  0     0  0
 34 19  1  0     0  0
  1  6  1  0     0  0
  2  9  1  0     0  0
 10 12  1  0     0  0
 32 31  2  0     0  0
  1  5  1  0     0  0
  2  4  2  0     0  0
  3 15  1  0     0  0
  4  1  1  0     0  0
  5  3  1  0     0  0
  6 13  1  0     0  0
  7  3  2  0     0  0
  8  2  1  0     0  0
  9 14  1  0     0  0
 10  8  1  0     0  0
 11  9  1  0     0  0
 36 35  1  0     0  0
 37 35  1  0     0  0
 38 35  1  0     0  0
 39 36  1  0     0  0
 40 38  1  0     0  0
 41 38  1  0     0  0
 42 37  2  0     0  0
 43 41  2  0     0  0
 44 41  1  0     0  0
 45 40  1  0     0  0
 46 40  1  0     0  0
 40 39  1  0     0  0
 12 11  1  0     0  0
 36 47  1  0     0  0
 47 37  1  0     0  0
 20 47  1  0     0  0
M  END
>  <prID>
156

>  <IDDB>
51077

>  <pIC50_HIV_Integrase>
5.552841969

>  <Q>
-6.497378368

>  <Activity_Integrase>
Inactive_Integrase

NA
NA
NA
NA
$$$$

  Accelrys05311914332D 1   1.00000     0.00000     0

 48 52  0     0  0            999 V2000
    4.6625   -3.9382    0.0000 C   0  0  3  0  0  0           0  0  0
    3.2262   -3.9359    0.0000 C   0  0  0  0  0  0           0  0  0
    6.0946   -3.9402    0.0000 C   0  0  0  0  0  0           0  0  0
    3.9465   -3.5238    0.0000 C   0  0  0  0  0  0           0  0  0
    5.3785   -3.5259    0.0000 C   0  0  0  0  0  0           0  0  0
    4.6626   -4.7650    0.0000 C   0  0  1  0  0  0           0  0  0
    6.0950   -4.7629    0.0000 C   0  0  0  0  0  0           0  0  0
    2.5101   -3.5215    0.0000 C   0  0  0  0  0  0           0  0  0
    3.2258   -4.7710    0.0000 C   0  0  2  0  0  0           0  0  0
    1.7897   -3.9377    0.0000 C   0  0  0  0  0  0           0  0  0
    2.5056   -5.1830    0.0000 C   0  0  2  0  0  0           0  0  0
    1.7898   -4.7645    0.0000 C   0  0  0  0  0  0           0  0  0
    5.3745   -5.1791    0.0000 C   0  0  3  0  0  0           0  0  0
    9.6797   -2.6930    0.0000 C   0  0  0  0  0  0           0  0  0
    3.9421   -5.1812    0.0000 C   0  0  0  0  0  0           0  0  0
    6.8106   -3.5279    0.0000 C   0  0  0  0  0  0           0  0  0
   10.3996   -2.2850    0.0000 C   0  0  0  0  0  0           0  0  0
    8.9634   -2.2827    0.0000 C   0  0  0  0  0  0           0  0  0
   10.3998   -1.4540    0.0000 C   0  0  0  0  0  0           0  0  0
    7.5308   -3.9426    0.0000 N   0  0  0  0  0  0           0  0  0
    5.3788   -2.6949    0.0000 O   0  0  0  0  0  0           0  0  0
    2.5059   -2.6944    0.0000 O   0  0  0  0  0  0           0  0  0
    9.6795   -3.5239    0.0000 C   0  0  0  0  0  0           0  0  0
    5.3743   -6.0100    0.0000 N   0  0  3  0  0  0           0  0  0
    1.0778   -3.5236    0.0000 C   0  0  0  0  0  0           0  0  0
    4.6583   -3.1111    0.0000 O   0  0  0  0  0  0           0  0  0
    8.2430   -3.5258    0.0000 C   0  0  0  0  0  0           0  0  0
    6.8105   -2.7011    0.0000 O   0  0  0  0  0  0           0  0  0
    3.9422   -2.6967    0.0000 O   0  0  0  0  0  0           0  0  0
    8.2474   -2.6951    0.0000 O   0  0  0  0  0  0           0  0  0
    9.6796   -1.0394    0.0000 O   0  0  0  0  0  0           0  0  0
    6.8066   -5.1811    0.0000 O   0  0  0  0  0  0           0  0  0
    1.9204   -5.7669    0.0000 O   0  0  0  0  0  0           0  0  0
    8.9591   -3.9401    0.0000 N   0  0  0  0  0  0           0  0  0
    8.9633   -1.4560    0.0000 O   0  0  0  0  0  0           0  0  0
   11.1158   -1.0417    0.0000 O   0  0  0  0  0  0           0  0  0
    1.0777   -5.1813    0.0000 C   0  0  0  0  0  0           0  0  0
    2.5057   -6.0098    0.0000 C   0  0  0  0  0  0           0  0  0
    1.0777   -2.6968    0.0000 O   0  0  0  0  0  0           0  0  0
   11.1155   -2.7035    0.0000 C   0  0  0  0  0  0           0  0  0
    0.3575   -4.7666    0.0000 C   0  0  0  0  0  0           0  0  0
   11.1158   -3.5262    0.0000 C   0  0  0  0  0  0           0  0  0
   10.3957   -3.9383    0.0000 C   0  0  0  0  0  0           0  0  0
    0.3571   -3.9440    0.0000 C   0  0  0  0  0  0           0  0  0
    4.6622   -6.4268    0.0000 C   0  0  0  0  0  0           0  0  0
    6.0904   -6.4244    0.0000 C   0  0  0  0  0  0           0  0  0
    4.6545   -5.7457    0.0000 H   0  0  0  0  0  0           0  0  0
    3.2179   -5.6856    0.0000 H   0  0  0  0  0  0           0  0  0
  2  4  2  0     0  0
  3  5  1  0     0  0
  4  1  1  0     0  0
  5  1  1  0     0  0
  6  1  1  0     0  0
  7  3  2  0     0  0
  8  2  1  0     0  0
  9  2  1  0     0  0
 10  8  1  0     0  0
 11  9  1  0     0  0
 12 11  1  0     0  0
 13  6  1  0     0  0
 14 23  2  0     0  0
 15  6  1  0     0  0
 16  3  1  0     0  0
 17 14  1  0     0  0
 18 14  1  0     0  0
 19 17  1  0     0  0
 20 16  1  0     0  0
 21  5  2  0     0  0
 22  8  2  0     0  0
 23 34  1  0     0  0
 24 13  1  0     0  0
 25 10  2  0     0  0
 26  1  1  0     0  0
 27 20  1  0     0  0
 28 16  2  0     0  0
 29  4  1  0     0  0
 30 18  1  0     0  0
 31 19  2  0     0  0
 32  7  1  0     0  0
 11 33  1  1     0  0
 34 27  1  0     0  0
 35 18  2  0     0  0
 36 19  1  0     0  0
 37 12  2  0     0  0
 38 11  1  0     0  0
 39 25  1  0     0  0
 40 42  1  0     0  0
 41 37  1  0     0  0
 42 43  2  0     0  0
 43 23  1  0     0  0
 44 25  1  0     0  0
 45 24  1  0     0  0
 46 24  1  0     0  0
  6 47  1  6     0  0
  9 48  1  6     0  0
  9 15  1  0     0  0
  7 13  1  0     0  0
 10 12  1  0     0  0
 44 41  2  0     0  0
 40 17  2  0     0  0
M  END
>  <prID>
157

>  <IDDB>
51079

>  <pIC50_HIV_Integrase>
5.958607315

>  <Q>
-6.780522854

>  <Activity_Integrase>
Inactive_Integrase

NA
NA
NA
NA
$$$$

  Accelrys05311914332D 1   1.00000     0.00000     0

 40 44  0     0  0            999 V2000
   -0.1193    0.5190    0.0000 C   0  0  2  0  0  0           0  0  0
   -2.1715    0.5190    0.0000 C   0  0  0  0  0  0           0  0  0
    1.9209    0.5190    0.0000 C   0  0  0  0  0  0           0  0  0
   -1.1454    1.1156    0.0000 C   0  0  0  0  0  0           0  0  0
    0.9008    1.1156    0.0000 C   0  0  0  0  0  0           0  0  0
   -0.1193   -0.6622    0.0000 C   0  0  2  0  0  0           0  0  0
    1.9209   -0.6622    0.0000 C   0  0  0  0  0  0           0  0  0
   -3.1856    1.1096    0.0000 C   0  0  0  0  0  0           0  0  0
   -2.1715   -0.6622    0.0000 C   0  0  1  0  0  0           0  0  0
   -4.2117    0.5190    0.0000 C   0  0  0  0  0  0           0  0  0
   -3.1916   -1.2588    0.0000 C   0  0  1  0  0  0           0  0  0
   -4.2117   -0.6622    0.0000 C   0  0  0  0  0  0           0  0  0
    0.8948   -1.2588    0.0000 C   0  0  1  0  0  0           0  0  0
    2.9529    1.1215    0.0000 C   0  0  0  0  0  0           0  0  0
   -1.1454   -1.2588    0.0000 C   0  0  0  0  0  0           0  0  0
    3.9849    0.5309    0.0000 N   0  0  0  0  0  0           0  0  0
    6.0371    0.5429    0.0000 N   0  0  3  0  0  0           0  0  0
    5.0110    1.1215    0.0000 C   0  0  0  0  0  0           0  0  0
    0.9008    2.2907    0.0000 O   0  0  0  0  0  0           0  0  0
   -3.1856    2.2907    0.0000 O   0  0  0  0  0  0           0  0  0
    0.8948   -2.4339    0.0000 N   0  0  3  0  0  0           0  0  0
   -5.2318    1.1096    0.0000 C   0  0  0  0  0  0           0  0  0
   -0.2208    1.7717    0.0000 O   0  0  0  0  0  0           0  0  0
    2.9529    2.2968    0.0000 O   0  0  0  0  0  0           0  0  0
   -1.1454    2.2907    0.0000 O   0  0  0  0  0  0           0  0  0
    2.9529   -1.2588    0.0000 O   0  0  0  0  0  0           0  0  0
   -3.9551   -2.1655    0.0000 O   0  0  0  0  0  0           0  0  0
   -5.2376   -1.2588    0.0000 C   0  0  0  0  0  0           0  0  0
   -3.0782   -2.4220    0.0000 C   0  0  0  0  0  0           0  0  0
   -5.2318    2.2907    0.0000 O   0  0  0  0  0  0           0  0  0
    7.1586    0.9067    0.0000 C   0  0  0  0  0  0           0  0  0
    6.0371   -0.6443    0.0000 C   0  0  0  0  0  0           0  0  0
   -6.2577   -0.6622    0.0000 C   0  0  0  0  0  0           0  0  0
   -6.2577    0.5190    0.0000 C   0  0  0  0  0  0           0  0  0
   -0.1193   -3.0245    0.0000 C   0  0  0  0  0  0           0  0  0
    1.9209   -3.0245    0.0000 C   0  0  0  0  0  0           0  0  0
    7.8505   -0.0537    0.0000 C   0  0  0  0  0  0           0  0  0
    7.1765   -1.0082    0.0000 C   0  0  0  0  0  0           0  0  0
   -0.1193   -1.8493    0.0000 H   0  0  0  0  0  0           0  0  0
   -2.1715   -1.8493    0.0000 H   0  0  0  0  0  0           0  0  0
  2  4  2  0     0  0
  3  5  1  0     0  0
  4  1  1  0     0  0
  5  1  1  0     0  0
  6  1  1  0     0  0
  7  3  2  0     0  0
  8  2  1  0     0  0
  9  2  1  0     0  0
 10  8  1  0     0  0
 11  9  1  0     0  0
 12 11  1  0     0  0
 13  6  1  0     0  0
 14  3  1  0     0  0
 15  6  1  0     0  0
 16 14  1  0     0  0
 17 18  1  0     0  0
 18 16  1  0     0  0
 19  5  2  0     0  0
 20  8  2  0     0  0
 13 21  1  1     0  0
 22 10  2  0     0  0
  1 23  1  1     0  0
 24 14  2  0     0  0
 25  4  1  0     0  0
 26  7  1  0     0  0
 11 27  1  6     0  0
 28 12  2  0     0  0
 11 29  1  1     0  0
 30 22  1  0     0  0
 31 17  1  0     0  0
 32 17  1  0     0  0
 33 28  1  0     0  0
 34 22  1  0     0  0
 35 21  1  0     0  0
 36 21  1  0     0  0
 37 31  1  0     0  0
 38 32  1  0     0  0
  6 39  1  1     0  0
  9 40  1  1     0  0
  9 15  1  0     0  0
  7 13  1  0     0  0
 10 12  1  0     0  0
 34 33  2  0     0  0
 38 37  1  0     0  0
M  END
>  <prID>
158

>  <IDDB>
51085

>  <pIC50_HIV_Integrase>
4.467883352

>  <Q>
-5.512155633

>  <Activity_Integrase>
Inactive_Integrase

NA
NA
NA
NA
$$$$

  Accelrys05311914332D 1   1.00000     0.00000     0

 43 46  0     0  0            999 V2000
   -0.5958    0.5208    0.0000 C   0  0  3  0  0  0           0  0  0
   -2.2292    0.4333    0.0000 C   0  0  0  0  0  0           0  0  0
    1.0375    0.6167    0.0000 C   0  0  0  0  0  0           0  0  0
   -1.4417    0.9500    0.0000 C   0  0  0  0  0  0           0  0  0
    0.1917    1.0417    0.0000 C   0  0  0  0  0  0           0  0  0
   -3.0750    0.8625    0.0000 C   0  0  0  0  0  0           0  0  0
    1.0875   -0.3292    0.0000 C   0  0  0  0  0  0           0  0  0
   -2.1792   -0.5125    0.0000 C   0  0  1  0  0  0           0  0  0
   -0.5417   -0.4208    0.0000 C   0  0  2  0  0  0           0  0  0
   -3.8667    0.3417    0.0000 C   0  0  0  0  0  0           0  0  0
   -2.9667   -1.0292    0.0000 C   0  0  1  0  0  0           0  0  0
   -3.8125   -0.6000    0.0000 C   0  0  0  0  0  0           0  0  0
    0.3000   -0.8417    0.0000 C   0  0  3  0  0  0           0  0  0
   -1.3333   -0.9375    0.0000 C   0  0  0  0  0  0           0  0  0
    1.8292    1.1333    0.0000 C   0  0  0  0  0  0           0  0  0
    4.8792    0.7583    0.0000 C   0  0  3  0  0  0           0  0  0
    6.1792    0.2208    0.0000 C   0  0  0  0  0  0           0  0  0
    2.4792    0.4208    0.0000 N   0  0  0  0  0  0           0  0  0
   -0.0625    1.9500    0.0000 O   0  0  0  0  0  0           0  0  0
   -3.1292    1.8042    0.0000 O   0  0  0  0  0  0           0  0  0
   -4.7083    0.7708    0.0000 C   0  0  0  0  0  0           0  0  0
   -0.6500    1.4667    0.0000 O   0  0  0  0  0  0           0  0  0
    3.1583    1.1042    0.0000 C   0  0  0  0  0  0           0  0  0
    3.6375    0.2708    0.0000 N   0  0  0  0  0  0           0  0  0
    1.7750    2.0792    0.0000 O   0  0  0  0  0  0           0  0  0
   -1.4542    1.8875    0.0000 O   0  0  0  0  0  0           0  0  0
    6.7750    1.2458    0.0000 O   0  0  0  0  0  0           0  0  0
    1.5583   -1.1458    0.0000 O   0  0  0  0  0  0           0  0  0
   -2.9167   -1.9750    0.0000 O   0  0  0  0  0  0           0  0  0
    5.4667   -0.8375    0.0000 C   0  0  1  0  0  0           0  0  0
    0.2958   -1.7875    0.0000 C   0  0  3  0  0  0           0  0  0
    6.7750   -0.8125    0.0000 O   0  0  0  0  0  0           0  0  0
   -4.6042   -1.1167    0.0000 C   0  0  0  0  0  0           0  0  0
   -3.6000   -1.7333    0.0000 C   0  0  0  0  0  0           0  0  0
   -4.7625    1.7125    0.0000 O   0  0  0  0  0  0           0  0  0
    4.6375   -1.1042    0.0000 O   0  0  0  0  0  0           0  0  0
   -5.4458   -0.6917    0.0000 C   0  0  0  0  0  0           0  0  0
   -5.5000    0.2500    0.0000 C   0  0  0  0  0  0           0  0  0
    6.1458   -1.3708    0.0000 C   0  0  0  0  0  0           0  0  0
    1.1125   -2.2583    0.0000 C   0  0  0  0  0  0           0  0  0
   -0.5208   -2.2583    0.0000 C   0  0  0  0  0  0           0  0  0
   -0.5417   -1.3667    0.0000 H   0  0  0  0  0  0           0  0  0
   -2.1833   -1.4625    0.0000 H   0  0  0  0  0  0           0  0  0
  2  4  2  0     0  0
  3  5  1  0     0  0
  4  1  1  0     0  0
  5  1  1  0     0  0
  6  2  1  0     0  0
  7  3  2  0     0  0
  8  2  1  0     0  0
  9  1  1  0     0  0
 10  6  1  0     0  0
 11  8  1  0     0  0
 12 11  1  0     0  0
 13  9  1  0     0  0
 14  9  1  0     0  0
 15  3  1  0     0  0
 16 24  1  0     0  0
 17 16  1  0     0  0
 18 15  1  0     0  0
 19  5  2  0     0  0
 20  6  2  0     0  0
 21 10  2  0     0  0
 22  1  1  0     0  0
 23 18  1  0     0  0
 24 23  1  0     0  0
 25 15  2  0     0  0
 26  4  1  0     0  0
 27 17  2  0     0  0
 28  7  1  0     0  0
 11 29  1  6     0  0
 30 16  1  0     0  0
 31 13  1  0     0  0
 32 17  1  0     0  0
 33 12  2  0     0  0
 34 11  1  0     0  0
 35 21  1  0     0  0
 30 36  1  6     0  0
 37 33  1  0     0  0
 38 21  1  0     0  0
 39 30  1  0     0  0
 40 31  1  0     0  0
 41 31  1  0     0  0
  9 42  1  1     0  0
  8 43  1  1     0  0
  7 13  1  0     0  0
  8 14  1  0     0  0
 10 12  1  0     0  0
 38 37  2  0     0  0
M  END
>  <prID>
159

>  <IDDB>
51096

>  <pIC50_HIV_Integrase>
5.522878745

>  <Q>
-8.801657119

>  <Activity_Integrase>
Inactive_Integrase

NA
NA
NA
NA
$$$$

  Accelrys05311914332D 1   1.00000     0.00000     0

 44 46  0     0  0            999 V2000
   -0.4625    0.1167    0.0000 C   0  0  2  0  0  0           0  0  0
   -1.8958    0.1333    0.0000 C   0  0  0  0  0  0           0  0  0
    0.9708    0.1000    0.0000 C   0  0  0  0  0  0           0  0  0
   -1.1750    0.5375    0.0000 C   0  0  0  0  0  0           0  0  0
    0.2583    0.5208    0.0000 C   0  0  0  0  0  0           0  0  0
   -0.4708   -0.7083    0.0000 C   0  0  2  0  0  0           0  0  0
    0.9583   -0.7250    0.0000 C   0  0  0  0  0  0           0  0  0
   -2.6125    0.5583    0.0000 C   0  0  0  0  0  0           0  0  0
   -1.9083   -0.6958    0.0000 C   0  0  1  0  0  0           0  0  0
   -3.3333    0.1500    0.0000 C   0  0  0  0  0  0           0  0  0
   -2.6292   -1.1000    0.0000 C   0  0  1  0  0  0           0  0  0
   -3.3417   -0.6792    0.0000 C   0  0  0  0  0  0           0  0  0
    0.2375   -1.1333    0.0000 C   0  0  1  0  0  0           0  0  0
   -1.1917   -1.1167    0.0000 C   0  0  0  0  0  0           0  0  0
    1.6917    0.5042    0.0000 C   0  0  0  0  0  0           0  0  0
    4.5583    0.4750    0.0000 C   0  0  3  0  0  0           0  0  0
    2.4000    0.0833    0.0000 N   0  0  0  0  0  0           0  0  0
    0.2667    1.3500    0.0000 O   0  0  0  0  0  0           0  0  0
   -2.6042    1.3833    0.0000 O   0  0  0  0  0  0           0  0  0
    0.2292   -1.9583    0.0000 N   0  0  3  0  0  0           0  0  0
   -4.0417    0.5667    0.0000 C   0  0  0  0  0  0           0  0  0
   -0.4542    0.9417    0.0000 O   0  0  0  0  0  0           0  0  0
    3.1250    0.4917    0.0000 C   0  0  0  0  0  0           0  0  0
    1.7042    1.3375    0.0000 O   0  0  0  0  0  0           0  0  0
   -1.1708    1.3625    0.0000 O   0  0  0  0  0  0           0  0  0
    3.8375    0.0708    0.0000 N   0  0  0  0  0  0           0  0  0
    1.6708   -1.1500    0.0000 O   0  0  0  0  0  0           0  0  0
   -3.2208   -1.6792    0.0000 O   0  0  0  0  0  0           0  0  0
   -4.0667   -1.0875    0.0000 C   0  0  0  0  0  0           0  0  0
   -2.6417   -1.9333    0.0000 C   0  0  0  0  0  0           0  0  0
   -4.0333    1.4000    0.0000 O   0  0  0  0  0  0           0  0  0
    4.9625   -0.2458    0.0000 C   0  0  0  0  0  0           0  0  0
    4.1583    1.2000    0.0000 C   0  0  0  0  0  0           0  0  0
    5.2833    0.8833    0.0000 C   0  0  0  0  0  0           0  0  0
    5.7958   -0.2542    0.0000 O   0  0  0  0  0  0           0  0  0
    4.5792    1.9083    0.0000 O   0  0  0  0  0  0           0  0  0
    5.9958    0.4625    0.0000 O   0  0  0  0  0  0           0  0  0
   -4.7792   -0.6667    0.0000 C   0  0  0  0  0  0           0  0  0
   -4.7625    0.1625    0.0000 C   0  0  0  0  0  0           0  0  0
    0.9375   -2.3792    0.0000 C   0  0  0  0  0  0           0  0  0
   -0.4875   -2.3708    0.0000 C   0  0  0  0  0  0           0  0  0
   -1.9125   -1.5208    0.0000 H   0  0  0  0  0  0           0  0  0
   -0.4792   -1.5375    0.0000 H   0  0  0  0  0  0           0  0  0
   -2.4125    3.2917    0.0000 Cl  0  0  0  0  0  0           0  0  0
  2  4  2  0     0  0
  3  5  1  0     0  0
  4  1  1  0     0  0
  5  1  1  0     0  0
  6  1  1  0     0  0
  7  3  2  0     0  0
  8  2  1  0     0  0
  9  2  1  0     0  0
 10  8  1  0     0  0
 11  9  1  0     0  0
 12 11  1  0     0  0
 13  6  1  0     0  0
 14  6  1  0     0  0
 15  3  1  0     0  0
 16 26  1  0     0  0
 17 15  1  0     0  0
 18  5  2  0     0  0
 19  8  2  0     0  0
 13 20  1  1     0  0
 21 10  2  0     0  0
  1 22  1  1     0  0
 23 17  1  0     0  0
 24 15  2  0     0  0
 25  4  1  0     0  0
 26 23  1  0     0  0
 27  7  1  0     0  0
 28 11  1  0     0  0
 29 12  2  0     0  0
 11 30  1  1     0  0
 31 21  1  0     0  0
 32 16  1  0     0  0
 33 16  1  0     0  0
 34 16  1  0     0  0
 35 32  1  0     0  0
 36 33  1  0     0  0
 37 34  1  0     0  0
 38 29  1  0     0  0
 39 21  1  0     0  0
 40 20  1  0     0  0
 41 20  1  0     0  0
  9 42  1  1     0  0
  6 43  1  1     0  0
  9 14  1  0     0  0
  7 13  1  0     0  0
 10 12  1  0     0  0
 39 38  2  0     0  0
M  END
>  <prID>
160

>  <IDDB>
51103

>  <pIC50_HIV_Integrase>
6.0484550065

>  <Q>
-8.261698326

>  <Activity_Integrase>
Active_Integrase

NA
NA
NA
NA
$$$$

  Accelrys05311914332D 1   1.00000     0.00000     0

 46 51  0     0  0            999 V2000
   -0.9875    0.2000    0.0000 C   0  0  2  0  0  0           0  0  0
   -2.3833    0.4875    0.0000 C   0  0  0  0  0  0           0  0  0
    0.4125   -0.0875    0.0000 C   0  0  0  0  0  0           0  0  0
    4.9250    0.6542    0.0000 C   0  0  0  0  0  0           0  0  0
   -1.6000    0.7500    0.0000 C   0  0  0  0  0  0           0  0  0
    4.1458    0.4000    0.0000 N   0  0  0  0  0  0           0  0  0
   -0.2042    0.4542    0.0000 C   0  0  0  0  0  0           0  0  0
    5.5417    0.1083    0.0000 C   0  0  0  0  0  0           0  0  0
   -1.1500   -0.6042    0.0000 C   0  0  2  0  0  0           0  0  0
    0.2458   -0.8917    0.0000 C   0  0  0  0  0  0           0  0  0
   -3.0000    1.0333    0.0000 C   0  0  0  0  0  0           0  0  0
   -2.5458   -0.3167    0.0000 C   0  0  1  0  0  0           0  0  0
    4.6000   -0.9500    0.0000 N   0  0  0  0  0  0           0  0  0
    3.9875   -0.4042    0.0000 C   0  0  0  0  0  0           0  0  0
    5.3792   -0.6958    0.0000 C   0  0  0  0  0  0           0  0  0
   -3.7833    0.7750    0.0000 C   0  0  0  0  0  0           0  0  0
   -3.3250   -0.5750    0.0000 C   0  0  1  0  0  0           0  0  0
   -3.9417   -0.0292    0.0000 C   0  0  0  0  0  0           0  0  0
    5.3667    1.5083    0.0000 N   0  0  0  0  0  0           0  0  0
   -0.5333   -1.1542    0.0000 C   0  0  1  0  0  0           0  0  0
    6.1792    1.3625    0.0000 N   0  0  0  0  0  0           0  0  0
   -1.9292   -0.8625    0.0000 C   0  0  0  0  0  0           0  0  0
    1.1875    0.1708    0.0000 C   0  0  0  0  0  0           0  0  0
    6.3000    0.5500    0.0000 N   0  0  0  0  0  0           0  0  0
    3.2000   -0.6625    0.0000 N   0  0  0  0  0  0           0  0  0
    1.8042   -0.3750    0.0000 N   0  0  0  0  0  0           0  0  0
   -0.0417    1.2625    0.0000 O   0  0  0  0  0  0           0  0  0
   -2.8375    1.8417    0.0000 O   0  0  0  0  0  0           0  0  0
   -0.7000   -1.9583    0.0000 N   0  0  3  0  0  0           0  0  0
   -4.3958    1.3208    0.0000 C   0  0  0  0  0  0           0  0  0
    2.5833   -0.1167    0.0000 C   0  0  0  0  0  0           0  0  0
    6.0000   -1.2375    0.0000 O   0  0  0  0  0  0           0  0  0
   -0.8208    1.0000    0.0000 O   0  0  0  0  0  0           0  0  0
    1.3542    0.9750    0.0000 O   0  0  0  0  0  0           0  0  0
   -1.4417    1.5500    0.0000 O   0  0  0  0  0  0           0  0  0
    0.8625   -1.4375    0.0000 O   0  0  0  0  0  0           0  0  0
   -4.0125   -1.0250    0.0000 O   0  0  0  0  0  0           0  0  0
   -4.7250   -0.2875    0.0000 C   0  0  0  0  0  0           0  0  0
   -3.4875   -1.3792    0.0000 C   0  0  0  0  0  0           0  0  0
   -4.2333    2.1250    0.0000 O   0  0  0  0  0  0           0  0  0
   -5.3417    0.2583    0.0000 C   0  0  0  0  0  0           0  0  0
   -5.1750    1.0625    0.0000 C   0  0  0  0  0  0           0  0  0
   -1.4792   -2.2167    0.0000 C   0  0  0  0  0  0           0  0  0
   -0.0833   -2.5000    0.0000 C   0  0  0  0  0  0           0  0  0
   -1.1542   -1.4292    0.0000 H   0  0  0  0  0  0           0  0  0
   -2.5542   -1.1333    0.0000 H   0  0  0  0  0  0           0  0  0
  2  5  2  0     0  0
  3  7  1  0     0  0
  4  6  1  0     0  0
  5  1  1  0     0  0
  6 14  2  0     0  0
  7  1  1  0     0  0
  8 15  1  0     0  0
  9  1  1  0     0  0
 10  3  2  0     0  0
 11  2  1  0     0  0
 12  2  1  0     0  0
 13 14  1  0     0  0
 14 25  1  0     0  0
 15 13  1  0     0  0
 16 11  1  0     0  0
 17 12  1  0     0  0
 18 17  1  0     0  0
 19  4  1  0     0  0
 20  9  1  0     0  0
 21 19  2  0     0  0
 22  9  1  0     0  0
 23  3  1  0     0  0
 24  8  1  0     0  0
 25 31  1  0     0  0
 26 23  1  0     0  0
 27  7  2  0     0  0
 28 11  2  0     0  0
 20 29  1  1     0  0
 30 16  2  0     0  0
 31 26  1  0     0  0
 32 15  2  0     0  0
  1 33  1  1     0  0
 34 23  2  0     0  0
 35  5  1  0     0  0
 36 10  1  0     0  0
 37 17  1  0     0  0
 38 18  2  0     0  0
 17 39  1  1     0  0
 40 30  1  0     0  0
 41 38  1  0     0  0
 42 30  1  0     0  0
 43 29  1  0     0  0
 44 29  1  0     0  0
  9 45  1  1     0  0
 12 46  1  1     0  0
 12 22  1  0     0  0
 10 20  1  0     0  0
 16 18  1  0     0  0
 42 41  2  0     0  0
  8  4  2  0     0  0
 21 24  1  0     0  0
M  END
>  <prID>
161

>  <IDDB>
51108

>  <pIC50_HIV_Integrase>
6.522878745

>  <Q>
-8.034458007

>  <Activity_Integrase>
Active_Integrase

NA
NA
NA
NA
$$$$

  Accelrys05311914332D 1   1.00000     0.00000     0

 38 41  0     0  0            999 V2000
    5.2333   -4.1667    0.0000 C   0  0  3  0  0  0           0  0  0
    4.5167   -2.9291    0.0000 C   0  0  0  0  0  0           0  0  0
    5.9500   -5.4125    0.0000 C   0  0  0  0  0  0           0  0  0
    5.2292   -3.3417    0.0000 C   0  0  0  0  0  0           0  0  0
    5.9500   -4.5833    0.0000 C   0  0  0  0  0  0           0  0  0
    4.5167   -4.5833    0.0000 C   0  0  3  0  0  0           0  0  0
    5.2292   -5.8208    0.0000 C   0  0  0  0  0  0           0  0  0
    4.5167   -2.1041    0.0000 C   0  0  0  0  0  0           0  0  0
    3.7958   -3.3417    0.0000 C   0  0  3  0  0  0           0  0  0
    3.7958   -1.6875    0.0000 C   0  0  0  0  0  0           0  0  0
    3.0833   -2.9291    0.0000 C   0  0  3  0  0  0           0  0  0
    3.0833   -2.1041    0.0000 C   0  0  0  0  0  0           0  0  0
    4.5167   -5.4083    0.0000 C   0  0  3  0  0  0           0  0  0
    3.7958   -4.1667    0.0000 C   0  0  0  0  0  0           0  0  0
    6.6625   -5.8208    0.0000 C   0  0  0  0  0  0           0  0  0
    6.6625   -4.1667    0.0000 O   0  0  0  0  0  0           0  0  0
    5.2292   -1.6875    0.0000 O   0  0  0  0  0  0           0  0  0
    3.7958   -5.8208    0.0000 N   0  0  3  0  0  0           0  0  0
    7.3792   -5.4083    0.0000 N   0  0  0  0  0  0           0  0  0
    3.7958   -0.8625    0.0000 C   0  0  0  0  0  0           0  0  0
    5.9500   -3.7583    0.0000 O   0  0  0  0  0  0           0  0  0
    6.6625   -6.6458    0.0000 O   0  0  0  0  0  0           0  0  0
    5.9500   -2.9291    0.0000 O   0  0  0  0  0  0           0  0  0
    5.2292   -6.6458    0.0000 O   0  0  0  0  0  0           0  0  0
    2.2791   -2.7167    0.0000 O   0  0  0  0  0  0           0  0  0
    8.1000   -5.8208    0.0000 C   0  0  0  0  0  0           0  0  0
    8.8125   -5.4083    0.0000 N   0  0  0  0  0  0           0  0  0
    2.3625   -1.6875    0.0000 C   0  0  0  0  0  0           0  0  0
    2.3625   -3.3417    0.0000 C   0  0  0  0  0  0           0  0  0
    4.5125   -0.4500    0.0000 O   0  0  0  0  0  0           0  0  0
   10.2458   -5.4083    0.0000 C   0  0  0  0  0  0           0  0  0
   11.6792   -5.4083    0.0000 O   0  0  0  0  0  0           0  0  0
    2.3625   -0.8625    0.0000 C   0  0  0  0  0  0           0  0  0
    3.0833   -0.4500    0.0000 C   0  0  0  0  0  0           0  0  0
    3.7958   -6.6458    0.0000 C   0  0  0  0  0  0           0  0  0
    3.0833   -5.4125    0.0000 C   0  0  0  0  0  0           0  0  0
    9.5333   -5.8208    0.0000 C   0  0  0  0  0  0           0  0  0
   10.9625   -5.8208    0.0000 C   0  0  0  0  0  0           0  0  0
  5  1  1  0     0  0
  6  1  1  0     0  0
  7 13  1  0     0  0
  8  2  1  0     0  0
  9 14  1  0     0  0
 10  8  1  0     0  0
 11  9  1  0     0  0
 12 11  1  0     0  0
 13  6  1  0     0  0
 14  6  1  0     0  0
 15  3  1  0     0  0
 16  5  2  0     0  0
 17  8  2  0     0  0
 18 13  1  0     0  0
 19 15  1  0     0  0
 20 10  2  0     0  0
 21  1  1  0     0  0
 22 15  2  0     0  0
 23  4  1  0     0  0
 24  7  1  0     0  0
 25 11  1  0     0  0
 26 19  1  0     0  0
 27 26  1  0     0  0
 28 12  2  0     0  0
 29 11  1  0     0  0
 30 20  1  0     0  0
 31 37  1  0     0  0
 32 38  1  0     0  0
 33 28  1  0     0  0
 34 20  1  0     0  0
 35 18  1  0     0  0
 36 18  1  0     0  0
 37 27  1  0     0  0
 38 31  1  0     0  0
  2  9  1  0     0  0
  3  7  2  0     0  0
 10 12  1  0     0  0
 34 33  2  0     0  0
  2  4  2  0     0  0
  3  5  1  0     0  0
  4  1  1  0     0  0
M  END
>  <prID>
162

>  <IDDB>
51109

>  <pIC50_HIV_Integrase>
5.443697499

>  <Q>
-6.740317284

>  <Activity_Integrase>
Inactive_Integrase

NA
NA
NA
NA
$$$$

  Accelrys05311914332D 1   1.00000     0.00000     0

 39 42  0     0  0            999 V2000
    5.2333   -4.1667    0.0000 C   0  0  3  0  0  0           0  0  0
    4.5167   -2.9250    0.0000 C   0  0  0  0  0  0           0  0  0
    5.9458   -5.4125    0.0000 C   0  0  0  0  0  0           0  0  0
    5.2292   -3.3417    0.0000 C   0  0  0  0  0  0           0  0  0
    5.9458   -4.5833    0.0000 C   0  0  0  0  0  0           0  0  0
    4.5167   -4.5833    0.0000 C   0  0  3  0  0  0           0  0  0
    5.2292   -5.8208    0.0000 C   0  0  0  0  0  0           0  0  0
    4.5167   -2.1000    0.0000 C   0  0  0  0  0  0           0  0  0
    3.8000   -3.3417    0.0000 C   0  0  3  0  0  0           0  0  0
    3.8000   -1.6875    0.0000 C   0  0  0  0  0  0           0  0  0
    3.0792   -2.9250    0.0000 C   0  0  3  0  0  0           0  0  0
    3.0792   -2.1000    0.0000 C   0  0  0  0  0  0           0  0  0
    4.5167   -5.4083    0.0000 C   0  0  3  0  0  0           0  0  0
    3.8000   -4.1667    0.0000 C   0  0  0  0  0  0           0  0  0
    6.6667   -5.8208    0.0000 C   0  0  0  0  0  0           0  0  0
    6.6667   -4.1667    0.0000 O   0  0  0  0  0  0           0  0  0
   10.9625   -5.8208    0.0000 C   0  0  0  0  0  0           0  0  0
    5.2292   -1.6875    0.0000 O   0  0  0  0  0  0           0  0  0
    3.8000   -5.8208    0.0000 N   0  0  3  0  0  0           0  0  0
    7.3833   -5.4083    0.0000 N   0  0  0  0  0  0           0  0  0
    3.8000   -0.8667    0.0000 C   0  0  0  0  0  0           0  0  0
    5.9458   -3.7541    0.0000 O   0  0  0  0  0  0           0  0  0
    6.6667   -6.6458    0.0000 O   0  0  0  0  0  0           0  0  0
    5.9458   -2.9250    0.0000 O   0  0  0  0  0  0           0  0  0
    5.2292   -6.6458    0.0000 O   0  0  0  0  0  0           0  0  0
   10.2458   -5.4083    0.0000 C   0  0  0  0  0  0           0  0  0
   11.6833   -5.4083    0.0000 O   0  0  0  0  0  0           0  0  0
    2.3750   -2.4959    0.0000 O   0  0  0  0  0  0           0  0  0
    8.0958   -5.8208    0.0000 C   0  0  0  0  0  0           0  0  0
    8.8167   -5.4083    0.0000 N   0  0  0  0  0  0           0  0  0
    2.3667   -1.6875    0.0000 C   0  0  0  0  0  0           0  0  0
    2.3667   -3.3417    0.0000 C   0  0  0  0  0  0           0  0  0
   10.9625   -6.6458    0.0000 O   0  0  0  0  0  0           0  0  0
    4.5125   -0.4500    0.0000 O   0  0  0  0  0  0           0  0  0
    9.5333   -5.8208    0.0000 C   0  0  0  0  0  0           0  0  0
    2.3667   -0.8667    0.0000 C   0  0  0  0  0  0           0  0  0
    3.0792   -0.4500    0.0000 C   0  0  0  0  0  0           0  0  0
    3.8000   -6.6458    0.0000 C   0  0  0  0  0  0           0  0  0
    3.0792   -5.4125    0.0000 C   0  0  0  0  0  0           0  0  0
  5  1  1  0     0  0
  6  1  1  0     0  0
  7 13  1  0     0  0
  8  2  1  0     0  0
  9 14  1  0     0  0
 10  8  1  0     0  0
 11  9  1  0     0  0
 12 11  1  0     0  0
 13  6  1  0     0  0
 14  6  1  0     0  0
 15  3  1  0     0  0
 16  5  2  0     0  0
 17 26  1  0     0  0
 18  8  2  0     0  0
 19 13  1  0     0  0
 20 15  1  0     0  0
 21 10  2  0     0  0
 22  1  1  0     0  0
 23 15  2  0     0  0
 24  4  1  0     0  0
 25  7  1  0     0  0
 26 35  1  0     0  0
 27 17  2  0     0  0
 28 11  1  0     0  0
 29 20  1  0     0  0
 30 29  1  0     0  0
 31 12  2  0     0  0
 32 11  1  0     0  0
 33 17  1  0     0  0
 34 21  1  0     0  0
 35 30  1  0     0  0
 36 31  1  0     0  0
 37 21  1  0     0  0
 38 19  1  0     0  0
 39 19  1  0     0  0
  3  7  2  0     0  0
  2  9  1  0     0  0
 10 12  1  0     0  0
 37 36  2  0     0  0
  2  4  2  0     0  0
  3  5  1  0     0  0
  4  1  1  0     0  0
M  END
>  <prID>
163

>  <IDDB>
51112

>  <pIC50_HIV_Integrase>
5.602059991

>  <Q>
-6.831398068

>  <Activity_Integrase>
Inactive_Integrase

NA
NA
NA
NA
$$$$

  Accelrys05311914332D 1   1.00000     0.00000     0

 41 44  0     0  0            999 V2000
    5.7791   -3.9583    0.0000 C   0  0  3  0  0  0           0  0  0
    5.0625   -2.7166    0.0000 C   0  0  0  0  0  0           0  0  0
    6.4917   -5.2000    0.0000 C   0  0  0  0  0  0           0  0  0
    5.7750   -3.1291    0.0000 C   0  0  0  0  0  0           0  0  0
    6.4917   -4.3708    0.0000 C   0  0  0  0  0  0           0  0  0
    5.0625   -4.3708    0.0000 C   0  0  3  0  0  0           0  0  0
    5.7750   -5.6125    0.0000 C   0  0  0  0  0  0           0  0  0
    5.0625   -1.8875    0.0000 C   0  0  0  0  0  0           0  0  0
    4.3417   -3.1291    0.0000 C   0  0  3  0  0  0           0  0  0
    4.3417   -1.4708    0.0000 C   0  0  0  0  0  0           0  0  0
    3.6292   -2.7166    0.0000 C   0  0  3  0  0  0           0  0  0
    3.6292   -1.8875    0.0000 C   0  0  0  0  0  0           0  0  0
    5.0625   -5.1959    0.0000 C   0  0  3  0  0  0           0  0  0
    4.3417   -3.9583    0.0000 C   0  0  0  0  0  0           0  0  0
    7.2125   -5.6125    0.0000 C   0  0  0  0  0  0           0  0  0
   10.0875   -5.6125    0.0000 C   0  0  3  0  0  0           0  0  0
   10.0875   -6.4417    0.0000 C   0  0  0  0  0  0           0  0  0
    7.9292   -5.1959    0.0000 N   0  0  0  0  0  0           0  0  0
    7.2125   -3.9583    0.0000 O   0  0  0  0  0  0           0  0  0
    5.7750   -1.4708    0.0000 O   0  0  0  0  0  0           0  0  0
    4.3417   -5.6125    0.0000 N   0  0  3  0  0  0           0  0  0
    4.3417   -0.6458    0.0000 C   0  0  0  0  0  0           0  0  0
    6.4917   -3.5458    0.0000 O   0  0  0  0  0  0           0  0  0
    8.6458   -5.6125    0.0000 C   0  0  0  0  0  0           0  0  0
    9.3666   -5.1959    0.0000 N   0  0  0  0  0  0           0  0  0
    7.2125   -6.4417    0.0000 O   0  0  0  0  0  0           0  0  0
    6.4917   -2.7166    0.0000 O   0  0  0  0  0  0           0  0  0
   10.8000   -6.8542    0.0000 O   0  0  0  0  0  0           0  0  0
    5.7750   -6.4417    0.0000 O   0  0  0  0  0  0           0  0  0
    2.8458   -2.2458    0.0000 O   0  0  0  0  0  0           0  0  0
   10.8000   -5.1959    0.0000 C   0  0  3  0  0  0           0  0  0
    9.3666   -6.8542    0.0000 O   0  0  0  0  0  0           0  0  0
    2.9084   -1.4708    0.0000 C   0  0  0  0  0  0           0  0  0
    2.9084   -3.1291    0.0000 C   0  0  0  0  0  0           0  0  0
    5.0583   -0.2458    0.0000 O   0  0  0  0  0  0           0  0  0
   10.8000   -4.3667    0.0000 O   0  0  0  0  0  0           0  0  0
    2.9084   -0.6458    0.0000 C   0  0  0  0  0  0           0  0  0
    3.6292   -0.2458    0.0000 C   0  0  0  0  0  0           0  0  0
    4.3417   -6.4417    0.0000 C   0  0  0  0  0  0           0  0  0
    3.6292   -5.2000    0.0000 C   0  0  0  0  0  0           0  0  0
   11.5167   -5.6125    0.0000 C   0  0  0  0  0  0           0  0  0
  5  1  1  0     0  0
  6  1  1  0     0  0
  7 13  1  0     0  0
  8  2  1  0     0  0
  9 14  1  0     0  0
 10  8  1  0     0  0
 11  9  1  0     0  0
 12 11  1  0     0  0
 13  6  1  0     0  0
 14  6  1  0     0  0
 15  3  1  0     0  0
 16 25  1  0     0  0
 17 16  1  0     0  0
 18 15  1  0     0  0
 19  5  2  0     0  0
 20  8  2  0     0  0
 21 13  1  0     0  0
 22 10  2  0     0  0
 23  1  1  0     0  0
 24 18  1  0     0  0
 25 24  1  0     0  0
 26 15  2  0     0  0
 27  4  1  0     0  0
 28 17  2  0     0  0
 29  7  1  0     0  0
 30 11  1  0     0  0
 31 16  1  0     0  0
 32 17  1  0     0  0
 33 12  2  0     0  0
 34 11  1  0     0  0
 35 22  1  0     0  0
 36 31  1  0     0  0
 37 33  1  0     0  0
 38 22  1  0     0  0
 39 21  1  0     0  0
 40 21  1  0     0  0
 41 31  1  0     0  0
  3  7  2  0     0  0
  2  9  1  0     0  0
 10 12  1  0     0  0
 38 37  2  0     0  0
  2  4  2  0     0  0
  3  5  1  0     0  0
  4  1  1  0     0  0
M  END
>  <prID>
164

>  <IDDB>
51114

>  <pIC50_HIV_Integrase>
6

>  <Q>
-7.77678384

>  <Activity_Integrase>
Inactive_Integrase

NA
NA
NA
NA
$$$$

  Accelrys05311914332D 1   1.00000     0.00000     0

 18 18  0     0  0            999 V2000
    0.8966   -0.5672    0.0000 C   0  0  0  0  0  0           0  0  0
    1.6091   -0.1547    0.0000 C   0  0  0  0  0  0           0  0  0
    2.3216   -0.5672    0.0000 C   0  0  0  0  0  0           0  0  0
    3.0341   -0.1547    0.0000 C   0  0  0  0  0  0           0  0  0
    3.7466   -0.5672    0.0000 C   0  0  0  0  0  0           0  0  0
    4.4591   -0.1547    0.0000 C   0  0  0  0  0  0           0  0  0
    5.1716   -0.5672    0.0000 C   0  0  0  0  0  0           0  0  0
    5.8841   -0.1547    0.0000 O   0  0  0  0  0  0           0  0  0
   -0.5306   -0.5708    0.0000 C   0  0  0  0  0  0           0  0  0
   -0.5318   -1.3982    0.0000 C   0  0  0  0  0  0           0  0  0
    0.1831   -1.8110    0.0000 C   0  0  0  0  0  0           0  0  0
    0.8995   -1.3977    0.0000 C   0  0  0  0  0  0           0  0  0
    0.1813   -0.1580    0.0000 C   0  0  0  0  0  0           0  0  0
    1.6042    0.6708    0.0000 O   0  0  0  0  0  0           0  0  0
    3.0292    0.6708    0.0000 O   0  0  0  0  0  0           0  0  0
    4.4542    0.6708    0.0000 O   0  0  0  0  0  0           0  0  0
    5.1667   -1.3917    0.0000 O   0  0  0  0  0  0           0  0  0
    1.6083   -1.8083    0.0000 Cl  0  0  0  0  0  0           0  0  0
  9 10  2  0     0  0
  2  3  2  0     0  0
 10 11  1  0     0  0
  5  6  2  0     0  0
 11 12  2  0     0  0
 12  1  1  0     0  0
  1  2  1  0     0  0
  1 13  2  0     0  0
 13  9  1  0     0  0
  6  7  1  0     0  0
  2 14  1  0     0  0
  3  4  1  0     0  0
  4 15  2  0     0  0
  7  8  1  0     0  0
  6 16  1  0     0  0
  7 17  2  0     0  0
  4  5  1  0     0  0
 12 18  1  0     0  0
M  END
>  <prID>
165

>  <IDDB>
51140

>  <pIC50_HIV_Integrase>
3.657577319

>  <Q>
-2.19336606

>  <Activity_Integrase>
Inactive_Integrase

NA
NA
NA
NA
$$$$

  Accelrys05311914332D 1   1.00000     0.00000     0

 16 18  0     0  0            999 V2000
    4.5383   -7.3339    0.0000 N   0  0  3  0  0  0           0  0  0
    5.1780   -7.8548    0.0000 C   0  0  0  0  0  0           0  0  0
    5.8639   -7.3672    0.0000 C   0  0  0  0  0  0           0  0  0
    5.6481   -6.5547    0.0000 S   0  0  0  0  0  0           0  0  0
    4.8375   -6.5664    0.0000 C   0  0  3  0  0  0           0  0  0
    3.0839   -6.1833    0.0000 C   0  0  0  0  0  0           0  0  0
    3.7257   -5.6711    0.0000 S   0  0  0  0  0  0           0  0  0
    4.5326   -5.8521    0.0000 C   0  0  0  0  0  0           0  0  0
    3.0861   -7.0102    0.0000 C   0  0  0  0  0  0           0  0  0
    3.7342   -7.5229    0.0000 C   0  0  0  0  0  0           0  0  0
    1.6527   -6.1833    0.0000 C   0  0  0  0  0  0           0  0  0
    1.6516   -7.0107    0.0000 C   0  0  0  0  0  0           0  0  0
    2.3664   -7.4235    0.0000 C   0  0  0  0  0  0           0  0  0
    2.3646   -5.7705    0.0000 C   0  0  0  0  0  0           0  0  0
    5.1167   -5.2417    0.0000 O   0  0  0  0  0  0           0  0  0
    3.5167   -8.3167    0.0000 O   0  0  0  0  0  0           0  0  0
  3  4  1  0     0  0
  6  9  1  0     0  0
  8  5  1  0     0  0
  4  5  1  0     0  0
  9 10  1  0     0  0
 10  1  1  0     0  0
  5  1  1  0     0  0
  1  2  1  0     0  0
 11 12  2  0     0  0
 12 13  1  0     0  0
 13  9  2  0     0  0
  6  7  1  0     0  0
  6 14  2  0     0  0
 14 11  1  0     0  0
  2  3  1  0     0  0
  8 15  2  0     0  0
  7  8  1  0     0  0
 10 16  2  0     0  0
M  END
>  <prID>
166

>  <IDDB>
51142

>  <pIC50_HIV_Integrase>
3.844759554

>  <Q>
1.645303551

>  <Activity_Integrase>
Inactive_Integrase

NA
NA
NA
NA
$$$$

  Accelrys05311914332D 1   1.00000     0.00000     0

 19 20  0     0  0            999 V2000
   10.4277   -2.7416    0.0000 C   0  0  0  0  0  0           0  0  0
   10.4266   -3.5690    0.0000 C   0  0  0  0  0  0           0  0  0
   11.1414   -3.9819    0.0000 C   0  0  0  0  0  0           0  0  0
   11.8578   -3.5685    0.0000 C   0  0  0  0  0  0           0  0  0
   11.8550   -2.7380    0.0000 C   0  0  0  0  0  0           0  0  0
   11.1396   -2.3289    0.0000 C   0  0  0  0  0  0           0  0  0
    7.5758   -2.7463    0.0000 C   0  0  0  0  0  0           0  0  0
    8.2883   -2.3338    0.0000 C   0  0  0  0  0  0           0  0  0
    9.0008   -2.7422    0.0000 C   0  0  0  0  0  0           0  0  0
    9.7133   -2.3297    0.0000 C   0  0  0  0  0  0           0  0  0
    6.1486   -2.7500    0.0000 C   0  0  0  0  0  0           0  0  0
    6.1474   -3.5773    0.0000 C   0  0  0  0  0  0           0  0  0
    6.8622   -3.9902    0.0000 C   0  0  0  0  0  0           0  0  0
    7.5787   -3.5769    0.0000 C   0  0  0  0  0  0           0  0  0
    6.8604   -2.3372    0.0000 C   0  0  0  0  0  0           0  0  0
    9.7083   -3.9750    0.0000 O   0  0  0  0  0  0           0  0  0
   11.1333   -4.8042    0.0000 O   0  0  0  0  0  0           0  0  0
   10.4167   -5.2125    0.0000 C   0  0  0  0  0  0           0  0  0
    8.2833   -1.5083    0.0000 O   0  0  0  0  0  0           0  0  0
  9 10  2  0     0  0
 10  1  1  0     0  0
  2  3  1  0     0  0
  5  6  2  0     0  0
 11 12  2  0     0  0
  6  1  1  0     0  0
 12 13  1  0     0  0
  1  2  2  0     0  0
 13 14  2  0     0  0
 14  7  1  0     0  0
  3  4  2  0     0  0
  7 15  2  0     0  0
 15 11  1  0     0  0
  7  8  1  0     0  0
  2 16  1  0     0  0
  3 17  1  0     0  0
  8  9  1  0     0  0
 17 18  1  0     0  0
  4  5  1  0     0  0
  8 19  2  0     0  0
M  END
>  <prID>
167

>  <IDDB>
51190

>  <pIC50_HIV_Integrase>
5.698970004

>  <Q>
0.676690619

>  <Activity_Integrase>
Inactive_Integrase

NA
NA
NA
NA
$$$$

  Accelrys05311914332D 1   1.00000     0.00000     0

 25 27  0     0  0            999 V2000
    4.2451   -4.0295    0.0000 S   0  0  3  0  0  0           0  0  0
    5.1284   -5.1428    0.0000 C   0  0  0  0  0  0           0  0  0
    5.7985   -4.6651    0.0000 N   0  0  0  0  0  0           0  0  0
    4.2540   -3.2088    0.0000 C   0  0  0  0  0  0           0  0  0
    4.2362   -4.8503    0.0000 N   0  0  0  0  0  0           0  0  0
    6.4580   -5.1478    0.0000 C   0  0  0  0  0  0           0  0  0
    5.3793   -5.9288    0.0000 N   0  0  0  0  0  0           0  0  0
    6.2054   -5.9293    0.0000 N   0  0  0  0  0  0           0  0  0
    3.5420   -2.7885    0.0000 C   0  0  0  0  0  0           0  0  0
    4.9667   -2.8123    0.0000 C   0  0  0  0  0  0           0  0  0
    3.5508   -1.9760    0.0000 C   0  0  0  0  0  0           0  0  0
    4.2718   -1.5713    0.0000 C   0  0  0  0  0  0           0  0  0
    5.0659   -4.0385    0.0000 O   0  0  0  0  0  0           0  0  0
    3.4202   -4.0206    0.0000 O   0  0  0  0  0  0           0  0  0
    4.9756   -1.9915    0.0000 C   0  0  0  0  0  0           0  0  0
    7.2393   -4.8985    0.0000 N   0  0  0  0  0  0           0  0  0
    2.8292   -3.1933    0.0000 S   0  0  0  0  0  0           0  0  0
    4.2808   -0.7505    0.0000 Cl  0  0  0  0  0  0           0  0  0
    7.6340   -4.1789    0.0000 C   0  0  0  0  0  0           0  0  0
    5.6885   -1.5867    0.0000 C   0  0  0  0  0  0           0  0  0
    8.4552   -4.1600    0.0000 C   0  0  0  0  0  0           0  0  0
    7.2077   -3.4784    0.0000 C   0  0  0  0  0  0           0  0  0
    8.8545   -3.4366    0.0000 C   0  0  0  0  0  0           0  0  0
    7.6071   -2.7550    0.0000 C   0  0  0  0  0  0           0  0  0
    8.4237   -2.7398    0.0000 C   0  0  0  0  0  0           0  0  0
  2  5  1  0     0  0
  3  2  1  0     0  0
  4  1  1  0     0  0
  5  1  1  0     0  0
  6  3  2  0     0  0
  7  2  2  0     0  0
  8  7  1  0     0  0
  9  4  1  0     0  0
 10  4  2  0     0  0
 11  9  2  0     0  0
 12 15  2  0     0  0
 13  1  2  0     0  0
 14  1  2  0     0  0
 15 10  1  0     0  0
 16  6  1  0     0  0
 17  9  1  0     0  0
 18 12  1  0     0  0
 19 16  1  0     0  0
 20 15  1  0     0  0
 21 19  2  0     0  0
 22 19  1  0     0  0
 23 21  1  0     0  0
 24 22  2  0     0  0
 25 24  1  0     0  0
  8  6  1  0     0  0
 12 11  1  0     0  0
 25 23  2  0     0  0
M  END
>  <prID>
168

>  <IDDB>
51198

>  <pIC50_HIV_Integrase>
5.1047166875

>  <Q>
-1.638187064

>  <Activity_Integrase>
Inactive_Integrase

NA
NA
NA
NA
$$$$

  Accelrys05311914332D 1   1.00000     0.00000     0

 27 29  0     0  0            999 V2000
    6.5792   -4.6584    0.0000 S   0  0  3  0  0  0           0  0  0
    8.1912   -4.5249    0.0000 C   0  0  0  0  0  0           0  0  0
    8.8457   -4.0293    0.0000 N   0  0  0  0  0  0           0  0  0
    5.8625   -5.0667    0.0000 C   0  0  0  0  0  0           0  0  0
    7.2875   -4.2459    0.0000 N   0  0  0  0  0  0           0  0  0
    9.5220   -4.5084    0.0000 C   0  0  0  0  0  0           0  0  0
    9.2798   -5.2927    0.0000 N   0  0  0  0  0  0           0  0  0
    8.4536   -5.2992    0.0000 N   0  0  0  0  0  0           0  0  0
    5.8625   -5.8917    0.0000 C   0  0  0  0  0  0           0  0  0
    5.1542   -4.6584    0.0000 C   0  0  0  0  0  0           0  0  0
    5.1542   -6.2958    0.0000 C   0  0  0  0  0  0           0  0  0
    4.4459   -5.8875    0.0000 C   0  0  0  0  0  0           0  0  0
    6.9875   -5.3667    0.0000 O   0  0  0  0  0  0           0  0  0
    6.1667   -3.9416    0.0000 O   0  0  0  0  0  0           0  0  0
    4.4459   -5.0667    0.0000 C   0  0  0  0  0  0           0  0  0
   10.2947   -4.2403    0.0000 N   0  0  0  0  0  0           0  0  0
   11.0128   -4.6303    0.0000 C   0  0  0  0  0  0           0  0  0
   11.7169   -4.2052    0.0000 C   0  0  0  0  0  0           0  0  0
    6.5792   -6.3000    0.0000 S   0  0  0  0  0  0           0  0  0
    3.7291   -6.2958    0.0000 Cl  0  0  0  0  0  0           0  0  0
   12.4327   -4.5986    0.0000 C   0  0  0  0  0  0           0  0  0
   13.1426   -4.1724    0.0000 O   0  0  0  0  0  0           0  0  0
   11.7588   -5.8448    0.0000 C   0  0  0  0  0  0           0  0  0
    3.7291   -4.6584    0.0000 C   0  0  0  0  0  0           0  0  0
   11.0372   -5.4524    0.0000 C   0  0  0  0  0  0           0  0  0
   12.4594   -5.4173    0.0000 C   0  0  0  0  0  0           0  0  0
   13.9605   -4.5604    0.0000 C   0  0  0  0  0  0           0  0  0
  2  5  1  0     0  0
  3  2  2  0     0  0
  4  1  1  0     0  0
  5  1  1  0     0  0
  6  3  1  0     0  0
  7  8  1  0     0  0
  8  2  1  0     0  0
  9  4  1  0     0  0
 10  4  2  0     0  0
 11  9  2  0     0  0
 12 15  2  0     0  0
 13  1  2  0     0  0
 14  1  2  0     0  0
 15 10  1  0     0  0
 16  6  1  0     0  0
 17 16  1  0     0  0
 18 17  1  0     0  0
 19  9  1  0     0  0
 20 12  1  0     0  0
 21 18  2  0     0  0
 22 21  1  0     0  0
 23 25  1  0     0  0
 24 15  1  0     0  0
 25 17  2  0     0  0
 26 23  2  0     0  0
 27 22  1  0     0  0
 12 11  1  0     0  0
  7  6  2  0     0  0
 26 21  1  0     0  0
M  END
>  <prID>
169

>  <IDDB>
51229

>  <pIC50_HIV_Integrase>
4.681936665

>  <Q>
-1.899385305

>  <Activity_Integrase>
Inactive_Integrase

NA
NA
NA
NA
$$$$

  Accelrys05311914332D 1   1.00000     0.00000     0

 32 34  0     0  0            999 V2000
   -2.4417   -0.8167    0.0000 S   0  0  3  0  0  0           0  0  0
   -3.1625   -1.2458    0.0000 N   0  0  0  0  0  0           0  0  0
    4.0083    0.4417    0.0000 C   0  0  0  0  0  0           0  0  0
    4.7292    0.8625    0.0000 C   0  0  3  0  0  0           0  0  0
   -3.8875   -0.8375    0.0000 C   0  0  0  0  0  0           0  0  0
    1.1500    0.4417    0.0000 C   0  0  0  0  0  0           0  0  0
   -3.8958   -0.0083    0.0000 N   0  0  0  0  0  0           0  0  0
   -1.7208   -0.3958    0.0000 C   0  0  0  0  0  0           0  0  0
   -2.8625   -0.0958    0.0000 O   0  0  0  0  0  0           0  0  0
   -2.0167   -1.5417    0.0000 O   0  0  0  0  0  0           0  0  0
    1.8625    0.8583    0.0000 N   0  0  0  0  0  0           0  0  0
   -4.6000   -1.2583    0.0000 N   0  0  0  0  0  0           0  0  0
    4.0083   -0.3875    0.0000 C   0  0  0  0  0  0           0  0  0
    0.4292    0.8542    0.0000 N   0  0  0  0  0  0           0  0  0
    3.2917    0.8583    0.0000 C   0  0  0  0  0  0           0  0  0
    2.5792    0.4417    0.0000 C   0  0  0  0  0  0           0  0  0
    1.1542   -0.3833    0.0000 O   0  0  0  0  0  0           0  0  0
    5.4500    1.2833    0.0000 F   0  0  0  0  0  0           0  0  0
    5.1500    0.1417    0.0000 F   0  0  0  0  0  0           0  0  0
    4.3083    1.5833    0.0000 F   0  0  0  0  0  0           0  0  0
   -1.7208    0.4333    0.0000 C   0  0  0  0  0  0           0  0  0
   -1.0083   -0.8083    0.0000 C   0  0  0  0  0  0           0  0  0
    3.2917   -0.8000    0.0000 C   0  0  0  0  0  0           0  0  0
   -4.6083    0.4000    0.0000 C   0  0  0  0  0  0           0  0  0
   -0.2917    0.4333    0.0000 C   0  0  0  0  0  0           0  0  0
   -5.3250   -0.8542    0.0000 C   0  0  0  0  0  0           0  0  0
    2.5792   -0.3875    0.0000 C   0  0  0  0  0  0           0  0  0
    4.7292   -0.8042    0.0000 Cl  0  0  0  0  0  0           0  0  0
   -0.2917   -0.3958    0.0000 C   0  0  0  0  0  0           0  0  0
   -1.0083    0.8417    0.0000 C   0  0  0  0  0  0           0  0  0
   -5.3375   -0.0292    0.0000 C   0  0  0  0  0  0           0  0  0
   -4.5958    1.2292    0.0000 C   0  0  0  0  0  0           0  0  0
  2  1  1  0     0  0
  3 15  1  0     0  0
  4  3  1  0     0  0
  5  2  1  0     0  0
  6 14  1  0     0  0
  7  5  2  0     0  0
  8  1  1  0     0  0
  9  1  2  0     0  0
 10  1  2  0     0  0
 11  6  1  0     0  0
 12  5  1  0     0  0
 13 23  1  0     0  0
 14 25  1  0     0  0
 15 16  2  0     0  0
 16 11  1  0     0  0
 17  6  2  0     0  0
 18  4  1  0     0  0
 19  4  1  0     0  0
 20  4  1  0     0  0
 21  8  2  0     0  0
 22  8  1  0     0  0
 23 27  2  0     0  0
 24  7  1  0     0  0
 25 29  1  0     0  0
 26 12  2  0     0  0
 27 16  1  0     0  0
 28 13  1  0     0  0
 29 22  2  0     0  0
 30 21  1  0     0  0
 31 26  1  0     0  0
 32 24  1  0     0  0
 25 30  2  0     0  0
 31 24  2  0     0  0
 13  3  2  0     0  0
M  END
>  <prID>
170

>  <IDDB>
57469

>  <pIC50_HIV_Integrase>
4.096910013

>  <Q>
-11.49305593

>  <Activity_Integrase>
Inactive_Integrase

NA
NA
NA
NA
$$$$

  Accelrys05311914332D 1   1.00000     0.00000     0

 27 29  0     0  0            999 V2000
    4.1375   -4.2833    0.0000 S   0  0  3  0  0  0           0  0  0
    5.3750   -3.5625    0.0000 C   0  0  0  0  0  0           0  0  0
    5.8583   -4.2250    0.0000 N   0  0  0  0  0  0           0  0  0
    4.5458   -3.5625    0.0000 N   0  0  0  0  0  0           0  0  0
    6.6458   -3.9625    0.0000 C   0  0  0  0  0  0           0  0  0
    3.4292   -3.8708    0.0000 C   0  0  0  0  0  0           0  0  0
    6.6375   -3.1417    0.0000 N   0  0  0  0  0  0           0  0  0
    5.8500   -2.8917    0.0000 N   0  0  3  0  0  0           0  0  0
    3.4292   -3.0417    0.0000 C   0  0  0  0  0  0           0  0  0
    2.7167   -4.2833    0.0000 C   0  0  0  0  0  0           0  0  0
    2.7125   -2.6292    0.0000 C   0  0  0  0  0  0           0  0  0
    2.0000   -3.0417    0.0000 C   0  0  0  0  0  0           0  0  0
    3.7208   -4.9917    0.0000 O   0  0  0  0  0  0           0  0  0
    4.8542   -4.6917    0.0000 O   0  0  0  0  0  0           0  0  0
    7.3167   -4.4458    0.0000 N   0  0  0  0  0  0           0  0  0
    1.9958   -3.8708    0.0000 C   0  0  0  0  0  0           0  0  0
    4.1375   -2.6250    0.0000 S   0  0  0  0  0  0           0  0  0
    8.0297   -4.0243    0.0000 C   0  0  0  0  0  0           0  0  0
    1.2792   -2.6250    0.0000 Cl  0  0  0  0  0  0           0  0  0
    9.4470   -3.1862    0.0000 C   0  0  0  0  0  0           0  0  0
    5.5917   -2.1083    0.0000 C   0  0  0  0  0  0           0  0  0
   10.1559   -2.7692    0.0000 Cl  0  0  0  0  0  0           0  0  0
    8.0197   -3.2038    0.0000 C   0  0  0  0  0  0           0  0  0
    8.7449   -4.4323    0.0000 C   0  0  0  0  0  0           0  0  0
    9.4534   -4.0112    0.0000 C   0  0  0  0  0  0           0  0  0
    8.7240   -2.7831    0.0000 C   0  0  0  0  0  0           0  0  0
    1.2792   -4.2792    0.0000 C   0  0  0  0  0  0           0  0  0
  2  4  1  0     0  0
  3  2  2  0     0  0
  4  1  1  0     0  0
  5  3  1  0     0  0
  6  1  1  0     0  0
  7  8  1  0     0  0
  8  2  1  0     0  0
  9  6  1  0     0  0
 10  6  2  0     0  0
 11  9  2  0     0  0
 12 16  2  0     0  0
 13  1  2  0     0  0
 14  1  2  0     0  0
 15  5  1  0     0  0
 16 10  1  0     0  0
 17  9  1  0     0  0
 18 15  1  0     0  0
 19 12  1  0     0  0
 20 26  1  0     0  0
 21  8  1  0     0  0
 22 20  1  0     0  0
 23 18  1  0     0  0
 24 18  2  0     0  0
 25 24  1  0     0  0
 26 23  2  0     0  0
 27 16  1  0     0  0
 12 11  1  0     0  0
  7  5  2  0     0  0
 20 25  2  0     0  0
M  END
>  <prID>
171

>  <IDDB>
59015

>  <pIC50_HIV_Integrase>
4.754487332

>  <Q>
-1.698794271

>  <Activity_Integrase>
Inactive_Integrase

NA
NA
NA
NA
$$$$

  Accelrys05311914332D 1   1.00000     0.00000     0

 26 29  0     0  0            999 V2000
    5.0209   -4.7250    0.0000 S   0  0  3  0  0  0           0  0  0
    6.8529   -3.6267    0.0000 N   0  0  3  0  0  0           0  0  0
    6.2436   -4.1771    0.0000 C   0  0  0  0  0  0           0  0  0
    7.5747   -4.0343    0.0000 C   0  0  0  0  0  0           0  0  0
    5.4282   -4.0049    0.0000 N   0  0  0  0  0  0           0  0  0
    4.3042   -4.3125    0.0000 C   0  0  0  0  0  0           0  0  0
    7.4034   -4.8456    0.0000 N   0  0  0  0  0  0           0  0  0
    6.5908   -4.8399    0.0000 N   0  0  0  0  0  0           0  0  0
    6.8396   -2.8011    0.0000 C   0  0  0  0  0  0           0  0  0
    4.3042   -3.4791    0.0000 C   0  0  0  0  0  0           0  0  0
    8.2800   -3.6114    0.0000 C   0  0  0  0  0  0           0  0  0
    3.5875   -4.7292    0.0000 C   0  0  0  0  0  0           0  0  0
    3.5833   -3.0667    0.0000 C   0  0  0  0  0  0           0  0  0
    7.5571   -2.3808    0.0000 C   0  0  0  0  0  0           0  0  0
    2.8750   -3.4833    0.0000 C   0  0  0  0  0  0           0  0  0
    4.6042   -5.4375    0.0000 O   0  0  0  0  0  0           0  0  0
    5.7416   -5.1375    0.0000 O   0  0  0  0  0  0           0  0  0
    2.8708   -4.3125    0.0000 C   0  0  0  0  0  0           0  0  0
    8.2789   -2.7884    0.0000 C   0  0  0  0  0  0           0  0  0
    5.0209   -3.0584    0.0000 S   0  0  0  0  0  0           0  0  0
    2.1500   -3.0625    0.0000 Cl  0  0  0  0  0  0           0  0  0
    8.9928   -4.0213    0.0000 C   0  0  0  0  0  0           0  0  0
    2.1500   -4.7208    0.0000 C   0  0  0  0  0  0           0  0  0
    8.9816   -2.3777    0.0000 C   0  0  0  0  0  0           0  0  0
    9.7053   -3.6042    0.0000 C   0  0  0  0  0  0           0  0  0
    9.6971   -2.7754    0.0000 C   0  0  0  0  0  0           0  0  0
  2  3  1  0     0  0
  3  5  1  0     0  0
  4  2  1  0     0  0
  5  1  1  0     0  0
  6  1  1  0     0  0
  7  8  1  0     0  0
  8  3  2  0     0  0
  9  2  1  0     0  0
 10  6  1  0     0  0
 11  4  1  0     0  0
 12  6  2  0     0  0
 13 10  2  0     0  0
 14  9  2  0     0  0
 15 18  2  0     0  0
 16  1  2  0     0  0
 17  1  2  0     0  0
 18 12  1  0     0  0
 19 14  1  0     0  0
 20 10  1  0     0  0
 21 15  1  0     0  0
 22 11  1  0     0  0
 23 18  1  0     0  0
 24 19  1  0     0  0
 25 22  2  0     0  0
 26 24  2  0     0  0
 15 13  1  0     0  0
  7  4  2  0     0  0
 19 11  2  0     0  0
 26 25  1  0     0  0
M  END
>  <prID>
172

>  <IDDB>
59018

>  <pIC50_HIV_Integrase>
4.974694135

>  <Q>
0.324148032

>  <Activity_Integrase>
Inactive_Integrase

NA
NA
NA
NA
$$$$

  Accelrys05311914332D 1   1.00000     0.00000     0

 30 32  0     0  0            999 V2000
   -1.8125   -0.1583    0.0000 S   0  0  3  0  0  0           0  0  0
    0.9875    0.0625    0.0000 N   0  0  3  0  0  0           0  0  0
   -0.2792    0.4667    0.0000 C   0  0  0  0  0  0           0  0  0
    0.2083    1.1208    0.0000 N   0  0  0  0  0  0           0  0  0
    0.9833    0.8792    0.0000 C   0  0  0  0  0  0           0  0  0
    0.2125   -0.1833    0.0000 N   0  0  0  0  0  0           0  0  0
   -2.5125    0.2417    0.0000 C   0  0  0  0  0  0           0  0  0
    1.6542   -0.4292    0.0000 C   0  0  0  0  0  0           0  0  0
   -0.9625    0.4583    0.0000 N   0  0  0  0  0  0           0  0  0
    3.8333   -0.2333    0.0000 C   0  0  3  0  0  0           0  0  0
    1.5625   -1.2542    0.0000 N   0  0  0  0  0  0           0  0  0
   -2.5167    1.0750    0.0000 C   0  0  0  0  0  0           0  0  0
   -3.2375   -0.1583    0.0000 C   0  0  0  0  0  0           0  0  0
    3.0792   -0.5750    0.0000 C   0  0  0  0  0  0           0  0  0
   -3.2417    1.4833    0.0000 C   0  0  0  0  0  0           0  0  0
    2.4042   -0.0917    0.0000 C   0  0  0  0  0  0           0  0  0
   -3.9417    1.0708    0.0000 C   0  0  0  0  0  0           0  0  0
   -2.2250   -0.8708    0.0000 O   0  0  0  0  0  0           0  0  0
   -1.1000   -0.5750    0.0000 O   0  0  0  0  0  0           0  0  0
   -3.9417    0.2417    0.0000 C   0  0  0  0  0  0           0  0  0
    2.2333   -1.7417    0.0000 C   0  0  0  0  0  0           0  0  0
    2.9875   -1.4042    0.0000 C   0  0  0  0  0  0           0  0  0
    1.6500    1.3667    0.0000 N   0  0  0  0  0  0           0  0  0
    4.6292   -0.4500    0.0000 F   0  0  0  0  0  0           0  0  0
    4.1292    0.5458    0.0000 F   0  0  0  0  0  0           0  0  0
    4.1333   -1.1000    0.0000 F   0  0  0  0  0  0           0  0  0
   -1.8125    1.4958    0.0000 S   0  0  0  0  0  0           0  0  0
   -4.6583    1.4875    0.0000 Cl  0  0  0  0  0  0           0  0  0
   -4.6583   -0.1542    0.0000 C   0  0  0  0  0  0           0  0  0
    2.1417   -2.5667    0.0000 C   0  0  0  0  0  0           0  0  0
  2  6  1  0     0  0
  3  9  1  0     0  0
  4  3  1  0     0  0
  5  4  2  0     0  0
  6  3  2  0     0  0
  7  1  1  0     0  0
  8  2  1  0     0  0
  9  1  1  0     0  0
 10 14  1  0     0  0
 11  8  2  0     0  0
 12  7  1  0     0  0
 13  7  2  0     0  0
 14 16  2  0     0  0
 15 12  2  0     0  0
 16  8  1  0     0  0
 17 20  2  0     0  0
 18  1  2  0     0  0
 19  1  2  0     0  0
 20 13  1  0     0  0
 21 11  1  0     0  0
 22 21  2  0     0  0
 23  5  1  0     0  0
 24 10  1  0     0  0
 25 10  1  0     0  0
 26 10  1  0     0  0
 27 12  1  0     0  0
 28 17  1  0     0  0
 29 20  1  0     0  0
 30 21  1  0     0  0
 17 15  1  0     0  0
  5  2  1  0     0  0
 22 14  1  0     0  0
M  END
>  <prID>
173

>  <IDDB>
59022

>  <pIC50_HIV_Integrase>
5.200659451

>  <Q>
-10.83229638

>  <Activity_Integrase>
Inactive_Integrase

NA
NA
NA
NA
$$$$

  Accelrys05311914332D 1   1.00000     0.00000     0

 29 31  0     0  0            999 V2000
   -1.2708   -1.1458    0.0000 S   0  0  3  0  0  0           0  0  0
    1.1875    0.3042    0.0000 C   0  0  0  0  0  0           0  0  0
   -1.9833   -0.7375    0.0000 C   0  0  0  0  0  0           0  0  0
    0.3625    0.2958    0.0000 N   0  0  0  0  0  0           0  0  0
   -0.0375   -0.4167    0.0000 C   0  0  0  0  0  0           0  0  0
    1.6083   -0.4083    0.0000 N   0  0  0  0  0  0           0  0  0
   -0.8625   -0.4250    0.0000 N   0  0  0  0  0  0           0  0  0
    0.3792   -1.1333    0.0000 N   0  0  0  0  0  0           0  0  0
    1.2000   -1.1250    0.0000 C   0  0  0  0  0  0           0  0  0
   -1.9833    0.1000    0.0000 C   0  0  0  0  0  0           0  0  0
   -2.7083   -1.1500    0.0000 C   0  0  0  0  0  0           0  0  0
    1.5958    1.0208    0.0000 N   0  0  3  0  0  0           0  0  0
   -2.7083    0.5167    0.0000 C   0  0  0  0  0  0           0  0  0
   -3.4208    0.0958    0.0000 C   0  0  0  0  0  0           0  0  0
   -1.6917   -1.8583    0.0000 O   0  0  0  0  0  0           0  0  0
   -0.5500   -1.5625    0.0000 O   0  0  0  0  0  0           0  0  0
   -3.4208   -0.7375    0.0000 C   0  0  0  0  0  0           0  0  0
    2.4167    1.0250    0.0000 C   0  0  0  0  0  0           0  0  0
    1.6083   -1.8375    0.0000 N   0  0  0  0  0  0           0  0  0
   -1.2708    0.5208    0.0000 S   0  0  0  0  0  0           0  0  0
   -4.1417    0.5208    0.0000 Cl  0  0  0  0  0  0           0  0  0
    1.1792    1.7333    0.0000 C   0  0  0  0  0  0           0  0  0
   -4.1417   -1.1375    0.0000 C   0  0  0  0  0  0           0  0  0
    2.8167    1.7417    0.0000 C   0  0  0  0  0  0           0  0  0
    2.8333    0.3125    0.0000 C   0  0  0  0  0  0           0  0  0
    1.5833    2.4500    0.0000 C   0  0  0  0  0  0           0  0  0
    3.6583    0.3208    0.0000 C   0  0  0  0  0  0           0  0  0
    3.6417    1.7500    0.0000 C   0  0  0  0  0  0           0  0  0
    4.0625    1.0375    0.0000 C   0  0  0  0  0  0           0  0  0
  2  4  2  0     0  0
  3  1  1  0     0  0
  4  5  1  0     0  0
  5  7  1  0     0  0
  6  9  2  0     0  0
  7  1  1  0     0  0
  8  5  2  0     0  0
  9  8  1  0     0  0
 10  3  1  0     0  0
 11  3  2  0     0  0
 12  2  1  0     0  0
 13 10  2  0     0  0
 14 17  2  0     0  0
 15  1  2  0     0  0
 16  1  2  0     0  0
 17 11  1  0     0  0
 18 12  1  0     0  0
 19  9  1  0     0  0
 20 10  1  0     0  0
 21 14  1  0     0  0
 22 12  1  0     0  0
 23 17  1  0     0  0
 24 18  1  0     0  0
 25 18  2  0     0  0
 26 22  1  0     0  0
 27 25  1  0     0  0
 28 24  2  0     0  0
 29 28  1  0     0  0
 14 13  1  0     0  0
  6  2  1  0     0  0
 29 27  2  0     0  0
M  END
>  <prID>
174

>  <IDDB>
59027

>  <pIC50_HIV_Integrase>
4.605548319

>  <Q>
-1.946765301

>  <Activity_Integrase>
Inactive_Integrase

NA
NA
NA
NA
$$$$

  Accelrys05311914332D 1   1.00000     0.00000     0

 25 28  0     0  0            999 V2000
    0.7125    0.1958    0.0000 N   0  0  3  0  0  0           0  0  0
    0.2417   -0.4750    0.0000 C   0  0  0  0  0  0           0  0  0
   -0.9958   -1.2083    0.0000 S   0  0  3  0  0  0           0  0  0
    1.5083   -0.0542    0.0000 C   0  0  0  0  0  0           0  0  0
   -0.5875   -0.4833    0.0000 N   0  0  0  0  0  0           0  0  0
    1.5167   -0.8792    0.0000 N   0  0  0  0  0  0           0  0  0
    0.7333   -1.1417    0.0000 N   0  0  0  0  0  0           0  0  0
    0.5250    1.0000    0.0000 N   0  0  0  0  0  0           0  0  0
   -1.7083   -0.8000    0.0000 C   0  0  0  0  0  0           0  0  0
    2.1083    0.5125    0.0000 C   0  0  0  0  0  0           0  0  0
   -1.7125    0.0375    0.0000 C   0  0  0  0  0  0           0  0  0
    1.1375    1.5667    0.0000 C   0  0  0  0  0  0           0  0  0
   -0.2792   -1.6250    0.0000 O   0  0  0  0  0  0           0  0  0
   -1.4167   -1.9167    0.0000 O   0  0  0  0  0  0           0  0  0
   -2.4333   -1.2125    0.0000 C   0  0  0  0  0  0           0  0  0
   -2.4375    0.4542    0.0000 C   0  0  0  0  0  0           0  0  0
    1.9292    1.3208    0.0000 C   0  0  0  0  0  0           0  0  0
   -0.9958    0.4625    0.0000 S   0  0  0  0  0  0           0  0  0
   -3.1458    0.0333    0.0000 C   0  0  0  0  0  0           0  0  0
   -3.1458   -0.8000    0.0000 C   0  0  0  0  0  0           0  0  0
   -3.8667    0.4500    0.0000 Cl  0  0  0  0  0  0           0  0  0
    2.9000    0.2667    0.0000 C   0  0  0  0  0  0           0  0  0
    2.5333    1.8792    0.0000 C   0  0  0  0  0  0           0  0  0
    3.5042    0.8250    0.0000 C   0  0  0  0  0  0           0  0  0
    3.3208    1.6375    0.0000 C   0  0  0  0  0  0           0  0  0
  2  1  1  0     0  0
  3  5  1  0     0  0
  4  1  1  0     0  0
  5  2  1  0     0  0
  6  4  2  0     0  0
  7  2  2  0     0  0
  8  1  1  0     0  0
  9  3  1  0     0  0
 10  4  1  0     0  0
 11  9  1  0     0  0
 12  8  2  0     0  0
 13  3  2  0     0  0
 14  3  2  0     0  0
 15  9  2  0     0  0
 16 11  2  0     0  0
 17 12  1  0     0  0
 18 11  1  0     0  0
 19 20  2  0     0  0
 20 15  1  0     0  0
 21 19  1  0     0  0
 22 10  1  0     0  0
 23 17  1  0     0  0
 24 22  2  0     0  0
 25 23  2  0     0  0
  7  6  1  0     0  0
 17 10  2  0     0  0
 25 24  1  0     0  0
 19 16  1  0     0  0
M  END
>  <prID>
175

>  <IDDB>
59035

>  <pIC50_HIV_Integrase>
4.411168274

>  <Q>
-0.193112526

>  <Activity_Integrase>
Inactive_Integrase

NA
NA
NA
NA
$$$$

  Accelrys05311914332D 1   1.00000     0.00000     0

 27 28  0     0  0            999 V2000
   -1.5375    0.5542    0.0000 C   0  0  0  0  0  0           0  0  0
    2.0917   -0.2708    0.0000 C   0  0  0  0  0  0           0  0  0
   -0.8208    0.9708    0.0000 C   0  0  0  0  0  0           0  0  0
   -1.5375   -0.2792    0.0000 C   0  0  0  0  0  0           0  0  0
    2.0917    0.5542    0.0000 C   0  0  0  0  0  0           0  0  0
   -2.2542   -0.6875    0.0000 C   0  0  0  0  0  0           0  0  0
    1.3667    0.9625    0.0000 C   0  0  0  0  0  0           0  0  0
    0.6583    0.5417    0.0000 C   0  0  0  0  0  0           0  0  0
   -2.2542    0.9625    0.0000 C   0  0  0  0  0  0           0  0  0
    1.3792   -0.6875    0.0000 C   0  0  0  0  0  0           0  0  0
   -0.1083    0.5625    0.0000 O   0  0  0  0  0  0           0  0  0
   -2.9625   -0.2792    0.0000 C   0  0  0  0  0  0           0  0  0
    2.8083   -0.6833    0.0000 C   0  0  0  0  0  0           0  0  0
    0.6667   -0.2792    0.0000 C   0  0  0  0  0  0           0  0  0
   -2.9625    0.5542    0.0000 C   0  0  0  0  0  0           0  0  0
   -0.8292    1.7958    0.0000 O   0  0  0  0  0  0           0  0  0
   -2.2542   -1.5167    0.0000 C   0  0  0  0  0  0           0  0  0
    2.8167   -1.5083    0.0000 O   0  0  0  0  0  0           0  0  0
   -0.8208   -0.6875    0.0000 O   0  0  0  0  0  0           0  0  0
    2.8042    0.9708    0.0000 O   0  0  0  0  0  0           0  0  0
   -2.9625   -1.9250    0.0000 O   0  0  0  0  0  0           0  0  0
   -3.6833   -0.6875    0.0000 O   0  0  0  0  0  0           0  0  0
    3.5208   -0.2667    0.0000 O   0  0  0  0  0  0           0  0  0
    1.3625    1.7833    0.0000 C   0  0  0  0  0  0           0  0  0
    1.3792   -1.5167    0.0000 C   0  0  0  0  0  0           0  0  0
   -2.2583    1.7917    0.0000 C   0  0  0  0  0  0           0  0  0
    4.2375   -0.6792    0.0000 C   0  0  0  0  0  0           0  0  0
  2 10  1  0     0  0
  3  1  1  0     0  0
  4  1  1  0     0  0
  5  7  1  0     0  0
  6  4  2  0     0  0
  7  8  2  0     0  0
  8 11  1  0     0  0
  9  1  2  0     0  0
 10 14  2  0     0  0
 11  3  1  0     0  0
 12 15  2  0     0  0
 13  2  1  0     0  0
 14  8  1  0     0  0
 15  9  1  0     0  0
 16  3  2  0     0  0
 17  6  1  0     0  0
 18 13  2  0     0  0
 19  4  1  0     0  0
 20  5  1  0     0  0
 21 17  2  0     0  0
 22 12  1  0     0  0
 23 13  1  0     0  0
 24  7  1  0     0  0
 25 10  1  0     0  0
 26  9  1  0     0  0
 27 23  1  0     0  0
 12  6  1  0     0  0
  2  5  2  0     0  0
M  END
>  <prID>
176

>  <IDDB>
59095

>  <pIC50_HIV_Integrase>
4.443697499

>  <Q>
-2.42103368

>  <Activity_Integrase>
Inactive_Integrase

NA
NA
NA
NA
$$$$

  Accelrys05311914332D 1   1.00000     0.00000     0

 24 26  0     0  0            999 V2000
   -2.8708    0.2333    0.0000 C   0  0  0  0  0  0           0  0  0
   -2.1583   -0.1833    0.0000 C   0  0  0  0  0  0           0  0  0
   -1.4417    0.2375    0.0000 C   0  0  0  0  0  0           0  0  0
   -0.7208   -0.1792    0.0000 N   0  0  0  0  0  0           0  0  0
   -3.5875   -0.1792    0.0000 C   0  0  0  0  0  0           0  0  0
   -2.8708    1.0625    0.0000 C   0  0  0  0  0  0           0  0  0
    3.5833   -0.1583    0.0000 C   0  0  0  0  0  0           0  0  0
    0.7208   -0.1750    0.0000 C   0  0  0  0  0  0           0  0  0
    1.4375    0.2458    0.0000 C   0  0  0  0  0  0           0  0  0
   -1.4417    1.0667    0.0000 C   0  0  0  0  0  0           0  0  0
    3.5917   -0.9875    0.0000 C   0  0  0  0  0  0           0  0  0
    0.0000    0.2417    0.0000 C   0  0  0  0  0  0           0  0  0
    2.8625    0.2542    0.0000 C   0  0  0  0  0  0           0  0  0
   -4.3000    0.2375    0.0000 O   0  0  0  0  0  0           0  0  0
   -2.1583    1.4792    0.0000 C   0  0  0  0  0  0           0  0  0
    2.1583   -0.1667    0.0000 C   0  0  0  0  0  0           0  0  0
    2.8792   -1.4042    0.0000 C   0  0  0  0  0  0           0  0  0
   -0.7250    1.4833    0.0000 C   0  0  0  0  0  0           0  0  0
   -2.1625   -1.0042    0.0000 O   0  0  0  0  0  0           0  0  0
   -3.5917   -1.0000    0.0000 O   0  0  0  0  0  0           0  0  0
    4.2958    0.2625    0.0000 O   0  0  0  0  0  0           0  0  0
   -0.0042    1.0750    0.0000 C   0  0  0  0  0  0           0  0  0
    2.1583   -0.9958    0.0000 C   0  0  0  0  0  0           0  0  0
    4.3000   -1.4000    0.0000 O   0  0  0  0  0  0           0  0  0
  2  1  1  0     0  0
  3  2  2  0     0  0
  4  3  1  0     0  0
  5  1  1  0     0  0
  6  1  2  0     0  0
  7 13  2  0     0  0
  8 12  1  0     0  0
  9  8  2  0     0  0
 10 15  2  0     0  0
 11 17  2  0     0  0
 12  4  2  0     0  0
 13 16  1  0     0  0
 14  5  2  0     0  0
 15  6  1  0     0  0
 16  9  1  0     0  0
 17 23  1  0     0  0
 18 10  1  0     0  0
 19  2  1  0     0  0
 20  5  1  0     0  0
 21  7  1  0     0  0
 22 18  2  0     0  0
 23 16  2  0     0  0
 24 11  1  0     0  0
 10  3  1  0     0  0
 22 12  1  0     0  0
 11  7  1  0     0  0
M  END
>  <prID>
177

>  <IDDB>
60467

>  <pIC50_HIV_Integrase>
6

>  <Q>
-1.734983687

>  <Activity_Integrase>
Inactive_Integrase

NA
NA
NA
NA
$$$$

  Accelrys05311914332D 1   1.00000     0.00000     0

 28 29  0     0  0            999 V2000
    7.1750   -0.4125    0.0000 C   0  0  3  0  0  0           0  0  0
    7.1750   -1.2583    0.0000 C   0  0  0  0  0  0           0  0  0
    7.9037   -1.6792    0.0000 C   0  0  3  0  0  0           0  0  0
    7.9037    0.0125    0.0000 C   0  0  0  0  0  0           0  0  0
    8.6324   -0.4125    0.0000 C   0  0  3  0  0  0           0  0  0
    8.6289   -1.2583    0.0000 C   0  0  3  0  0  0           0  0  0
    9.3585   -1.6841    0.0000 C   0  0  3  0  0  0           0  0  0
   10.0928   -1.2640    0.0000 C   0  0  0  0  0  0           0  0  0
   10.0954   -0.4186    0.0000 C   0  0  0  0  0  0           0  0  0
    9.3655    0.0076    0.0000 C   0  0  0  0  0  0           0  0  0
    6.4375    0.0083    0.0000 C   0  0  0  0  0  0           0  0  0
    9.3583    0.8542    0.0000 O   0  0  0  0  0  0           0  0  0
   10.8250    0.0083    0.0000 O   0  0  0  0  0  0           0  0  0
   10.8719   -1.4033    0.0000 C   0  0  3  0  0  0           0  0  0
   11.3976   -0.9414    0.0000 C   0  0  0  0  0  0           0  0  0
   11.1653   -2.1367    0.0000 C   0  0  0  0  0  0           0  0  0
   11.9403   -2.2408    0.0000 C   0  0  0  0  0  0           0  0  0
   12.2363   -2.9710    0.0000 C   0  0  0  0  0  0           0  0  0
   13.0128   -3.0784    0.0000 C   0  0  0  0  0  0           0  0  0
    7.7729   -2.4855    0.0000 C   0  0  0  0  0  0           0  0  0
    8.3742   -3.0800    0.0000 O   0  0  0  0  0  0           0  0  0
    6.9552   -2.7106    0.0000 O   0  0  0  0  0  0           0  0  0
    8.8958   -2.2458    0.0000 C   0  0  0  0  0  0           0  0  0
    9.9542   -2.2833    0.0000 C   0  0  3  0  0  0           0  0  0
    9.4292   -2.9667    0.0000 O   0  0  0  0  0  0           0  0  0
   10.7708   -2.5000    0.0000 C   0  0  0  0  0  0           0  0  0
   10.9917   -3.3167    0.0000 C   0  0  0  0  0  0           0  0  0
   10.6458   -3.9333    0.0000 O   0  0  0  0  0  0           0  0  0
  1  4  1  0     0  0
  8 14  1  0     0  0
  2  3  1  0     0  0
 14 15  1  0     0  0
  3  6  1  0     0  0
 14 16  1  0     0  0
  5  4  1  0     0  0
 16 17  1  0     0  0
  5 10  1  0     0  0
 17 18  1  0     0  0
  6  7  1  0     0  0
 18 19  1  0     0  0
  7  8  1  0     0  0
  8  9  2  0     0  0
 20 21  2  0     0  0
  9 10  1  0     0  0
 20 22  1  0     0  0
  3 20  1  0     0  0
  5  6  1  0     0  0
  7 23  1  0     0  0
  1 11  1  0     0  0
  7 24  1  0     0  0
 24 25  1  0     0  0
 10 12  2  0     0  0
 24 26  1  0     0  0
  1  2  1  0     0  0
 26 27  1  0     0  0
  9 13  1  0     0  0
 27 28  1  0     0  0
M  END
>  <prID>
178

>  <IDDB>
60844

>  <pIC50_HIV_Integrase>
4.698970004

>  <Q>
-6.675517922

>  <Activity_Integrase>
Inactive_Integrase

NA
NA
NA
NA
$$$$

  Accelrys05311914332D 1   1.00000     0.00000     0

 23 24  0     0  0            999 V2000
   -0.1000    0.2458    0.0000 N   0  0  0  0  0  0           0  0  0
   -0.3042    1.0458    0.0000 C   0  0  0  0  0  0           0  0  0
    0.7375    0.1833    0.0000 C   0  0  0  0  0  0           0  0  0
   -1.0417    1.4250    0.0000 N   0  0  0  0  0  0           0  0  0
    1.0250    0.9500    0.0000 N   0  0  0  0  0  0           0  0  0
   -1.7458    1.0000    0.0000 C   0  0  0  0  0  0           0  0  0
    0.3958    1.4875    0.0000 S   0  0  0  0  0  0           0  0  0
   -2.4833    1.3708    0.0000 N   0  0  0  0  0  0           0  0  0
   -1.7125    0.1708    0.0000 O   0  0  0  0  0  0           0  0  0
    1.2042   -0.4917    0.0000 S   0  0  0  0  0  0           0  0  0
   -3.1958    0.9333    0.0000 C   0  0  0  0  0  0           0  0  0
    2.0333   -0.4167    0.0000 C   0  0  0  0  0  0           0  0  0
   -3.1750    0.0833    0.0000 C   0  0  0  0  0  0           0  0  0
   -3.9042    1.3250    0.0000 C   0  0  0  0  0  0           0  0  0
    2.5042   -1.0917    0.0000 C   0  0  0  0  0  0           0  0  0
    5.1042   -2.3000    0.0000 C   0  0  0  0  0  0           0  0  0
    4.6417   -1.6167    0.0000 C   0  0  0  0  0  0           0  0  0
    3.3333   -1.0125    0.0000 C   0  0  0  0  0  0           0  0  0
    3.8167   -1.6917    0.0000 C   0  0  0  0  0  0           0  0  0
    5.9250   -2.2167    0.0000 C   0  0  0  0  0  0           0  0  0
   -3.8750   -0.3208    0.0000 C   0  0  0  0  0  0           0  0  0
   -4.6208    0.9083    0.0000 C   0  0  0  0  0  0           0  0  0
   -4.6042    0.0625    0.0000 C   0  0  0  0  0  0           0  0  0
  2  1  2  0     0  0
  3  1  1  0     0  0
  4  2  1  0     0  0
  5  3  2  0     0  0
  6  4  1  0     0  0
  7  2  1  0     0  0
  8  6  1  0     0  0
  9  6  2  0     0  0
 10  3  1  0     0  0
 11  8  1  0     0  0
 12 10  1  0     0  0
 13 11  1  0     0  0
 14 11  2  0     0  0
 15 12  1  0     0  0
 16 17  1  0     0  0
 17 19  1  0     0  0
 18 15  1  0     0  0
 19 18  1  0     0  0
 20 16  1  0     0  0
 21 13  2  0     0  0
 22 14  1  0     0  0
 23 22  2  0     0  0
  5  7  1  0     0  0
 23 21  1  0     0  0
M  END
>  <prID>
179

>  <IDDB>
62756

>  <pIC50_HIV_Integrase>
4.793174124

>  <Q>
-1.252819065

>  <Activity_Integrase>
Inactive_Integrase

NA
NA
NA
NA
$$$$

  Accelrys05311914332D 1   1.00000     0.00000     0

 25 27  0     0  0            999 V2000
    1.4333    0.0875    0.0000 C   0  0  0  0  0  0           0  0  0
    0.8792   -0.5375    0.0000 O   0  0  0  0  0  0           0  0  0
   -2.7417   -0.1292    0.0000 C   0  0  0  0  0  0           0  0  0
    1.0167    0.7958    0.0000 C   0  0  0  0  0  0           0  0  0
    0.1167   -0.1667    0.0000 C   0  0  0  0  0  0           0  0  0
    3.9542    1.5000    0.0000 C   0  0  0  0  0  0           0  0  0
   -3.4583   -0.5417    0.0000 C   0  0  0  0  0  0           0  0  0
    2.2625    0.0750    0.0000 C   0  0  0  0  0  0           0  0  0
    3.5250    0.7958    0.0000 C   0  0  0  0  0  0           0  0  0
   -1.3125   -0.1542    0.0000 N   0  0  0  0  0  0           0  0  0
    0.2167    0.6583    0.0000 C   0  0  0  0  0  0           0  0  0
    2.7000    0.7958    0.0000 C   0  0  0  0  0  0           0  0  0
   -0.6000   -0.5667    0.0000 C   0  0  0  0  0  0           0  0  0
   -2.0333   -0.5542    0.0000 N   0  0  0  0  0  0           0  0  0
   -2.7583    0.6958    0.0000 O   0  0  0  0  0  0           0  0  0
    3.5583    2.2208    0.0000 O   0  0  0  0  0  0           0  0  0
   -4.9042   -0.5417    0.0000 N   0  0  0  0  0  0           0  0  0
    4.7792    1.4833    0.0000 O   0  0  0  0  0  0           0  0  0
   -4.1833   -0.1292    0.0000 C   0  0  0  0  0  0           0  0  0
   -3.4833   -1.3792    0.0000 C   0  0  0  0  0  0           0  0  0
    2.6583   -0.6417    0.0000 C   0  0  0  0  0  0           0  0  0
    3.9167    0.0708    0.0000 C   0  0  0  0  0  0           0  0  0
    3.4792   -0.6500    0.0000 C   0  0  0  0  0  0           0  0  0
   -4.9042   -1.3625    0.0000 C   0  0  0  0  0  0           0  0  0
   -4.1750   -1.7750    0.0000 C   0  0  0  0  0  0           0  0  0
  2  1  1  0     0  0
  3 14  1  0     0  0
  4  1  2  0     0  0
  5  2  1  0     0  0
  6  9  1  0     0  0
  7  3  1  0     0  0
  8  1  1  0     0  0
  9 12  2  0     0  0
 10 13  2  0     0  0
 11  4  1  0     0  0
 12  8  1  0     0  0
 13  5  1  0     0  0
 14 10  1  0     0  0
 15  3  2  0     0  0
 16  6  2  0     0  0
 17 19  1  0     0  0
 18  6  1  0     0  0
 19  7  2  0     0  0
 20  7  1  0     0  0
 21  8  2  0     0  0
 22 23  2  0     0  0
 23 21  1  0     0  0
 24 17  2  0     0  0
 25 20  2  0     0  0
 11  5  2  0     0  0
 22  9  1  0     0  0
 24 25  1  0     0  0
M  END
>  <prID>
180

>  <IDDB>
62978

>  <pIC50_HIV_Integrase>
4.017728767

>  <Q>
-0.440955324

>  <Activity_Integrase>
Inactive_Integrase

NA
NA
NA
NA
$$$$

  Accelrys05311914332D 1   1.00000     0.00000     0

 25 27  0     0  0            999 V2000
    2.1833   -0.0333    0.0000 C   0  0  0  0  0  0           0  0  0
    2.6167   -1.4000    0.0000 N   0  0  0  0  0  0           0  0  0
    3.5833   -0.3500    0.0000 N   0  0  0  0  0  0           0  0  0
    2.0167   -0.8500    0.0000 C   0  0  0  0  0  0           0  0  0
    2.9708    0.2167    0.0000 C   0  0  0  0  0  0           0  0  0
    3.4083   -1.1625    0.0000 C   0  0  0  0  0  0           0  0  0
   -2.7542    0.2292    0.0000 C   0  0  0  0  0  0           0  0  0
   -0.5667    0.2875    0.0000 C   0  0  0  0  0  0           0  0  0
    1.5792    0.5292    0.0000 C   0  0  0  0  0  0           0  0  0
    0.1042    0.7750    0.0000 O   0  0  0  0  0  0           0  0  0
    0.7833    0.2875    0.0000 C   0  0  0  0  0  0           0  0  0
   -1.9625   -0.0250    0.0000 C   0  0  0  0  0  0           0  0  0
   -3.3708   -0.3250    0.0000 C   0  0  0  0  0  0           0  0  0
   -1.3625    0.5375    0.0000 C   0  0  0  0  0  0           0  0  0
   -0.3042   -0.4958    0.0000 C   0  0  0  0  0  0           0  0  0
    0.5167   -0.4875    0.0000 C   0  0  0  0  0  0           0  0  0
   -2.9417    1.0375    0.0000 C   0  0  0  0  0  0           0  0  0
    4.0167   -1.7250    0.0000 S   0  0  0  0  0  0           0  0  0
    1.2333   -1.1125    0.0000 O   0  0  0  0  0  0           0  0  0
    3.1333    1.0250    0.0000 O   0  0  0  0  0  0           0  0  0
   -3.1917   -1.1333    0.0000 O   0  0  0  0  0  0           0  0  0
   -1.5417    1.3500    0.0000 C   0  0  0  0  0  0           0  0  0
   -2.3292    1.5875    0.0000 C   0  0  0  0  0  0           0  0  0
   -4.1333   -0.0083    0.0000 O   0  0  0  0  0  0           0  0  0
   -3.7292    1.3000    0.0000 Cl  0  0  0  0  0  0           0  0  0
  2  4  1  0     0  0
  3  5  1  0     0  0
  4  1  1  0     0  0
  5  1  1  0     0  0
  6  3  1  0     0  0
  7 12  2  0     0  0
  8 10  1  0     0  0
  9  1  2  0     0  0
 10 11  1  0     0  0
 11  9  1  0     0  0
 12 14  1  0     0  0
 13  7  1  0     0  0
 14  8  1  0     0  0
 15 16  1  0     0  0
 16 11  2  0     0  0
 17 23  2  0     0  0
 18  6  2  0     0  0
 19  4  2  0     0  0
 20  5  2  0     0  0
 21 13  2  0     0  0
 22 14  2  0     0  0
 23 22  1  0     0  0
 24 13  1  0     0  0
 25 17  1  0     0  0
  6  2  1  0     0  0
 15  8  2  0     0  0
 17  7  1  0     0  0
M  END
>  <prID>
181

>  <IDDB>
65443

>  <pIC50_HIV_Integrase>
4.890759031

>  <Q>
-0.818512274

>  <Activity_Integrase>
Inactive_Integrase

NA
NA
NA
NA
$$$$

  Accelrys05311914332D 1   1.00000     0.00000     0

 26 29  0     0  0            999 V2000
    4.8666    0.1292    0.0000 C   0  0  0  0  0  0           0  0  0
    4.1227   -0.2817    0.0000 N   0  0  0  0  0  0           0  0  0
    4.1042   -1.1333    0.0000 C   0  0  0  0  0  0           0  0  0
    4.8359   -1.5724    0.0000 C   0  0  0  0  0  0           0  0  0
    5.5769   -1.1591    0.0000 C   0  0  0  0  0  0           0  0  0
    5.5904   -0.3441    0.0000 C   0  0  0  0  0  0           0  0  0
    6.3070   -1.5939    0.0000 N   0  0  0  0  0  0           0  0  0
    7.0515   -1.1801    0.0000 C   0  0  0  0  0  0           0  0  0
    7.0614   -0.3268    0.0000 C   0  0  0  0  0  0           0  0  0
    6.3305    0.1043    0.0000 C   0  0  0  0  0  0           0  0  0
    4.8305   -2.3958    0.0000 O   0  0  0  0  0  0           0  0  0
    3.3958   -1.5375    0.0000 C   0  0  0  0  0  0           0  0  0
    2.6875   -1.1249    0.0000 C   0  0  0  0  0  0           0  0  0
    1.9791   -1.5291    0.0000 C   0  0  0  0  0  0           0  0  0
    3.3917   -2.3500    0.0000 O   0  0  0  0  0  0           0  0  0
    1.2708   -1.1291    0.0000 C   0  0  0  0  0  0           0  0  0
    0.5708   -1.5333    0.0000 C   0  0  0  0  0  0           0  0  0
   -0.1334   -1.1291    0.0000 C   0  0  0  0  0  0           0  0  0
    2.6584   -0.2876    0.0000 C   0  0  0  0  0  0           0  0  0
    1.9833    0.1042    0.0000 C   0  0  0  0  0  0           0  0  0
    1.2708   -0.3125    0.0000 C   0  0  0  0  0  0           0  0  0
   -0.8333   -1.5333    0.0000 C   0  0  0  0  0  0           0  0  0
   -0.1334   -0.3167    0.0000 C   0  0  0  0  0  0           0  0  0
   -1.5333   -1.1333    0.0000 C   0  0  0  0  0  0           0  0  0
   -0.8375    0.0917    0.0000 C   0  0  0  0  0  0           0  0  0
   -1.5375   -0.3209    0.0000 C   0  0  0  0  0  0           0  0  0
  6  1  1  0     0  0
  1  2  2  0     0  0
  2  3  1  0     0  0
  3  4  2  0     0  0
  5  7  1  0     0  0
  7  8  2  0     0  0
  8  9  1  0     0  0
  9 10  2  0     0  0
 10  6  1  0     0  0
  4  5  1  0     0  0
  4 11  1  0     0  0
  5  6  2  0     0  0
 12  3  1  0     0  0
 13 12  1  0     0  0
 14 13  2  0     0  0
 15 12  2  0     0  0
 16 14  1  0     0  0
 17 16  1  0     0  0
 18 17  1  0     0  0
 19 13  1  0     0  0
 20 19  2  0     0  0
 21 20  1  0     0  0
 22 18  1  0     0  0
 23 18  2  0     0  0
 24 22  2  0     0  0
 25 23  1  0     0  0
 26 24  1  0     0  0
 21 16  2  0     0  0
 26 25  2  0     0  0
M  END
>  <prID>
182

>  <IDDB>
70961

>  <pIC50_HIV_Integrase>
7.397940009

>  <Q>
0.80114947

>  <Activity_Integrase>
Active_Integrase

NA
NA
NA
NA
$$$$

  Accelrys05311914332D 1   1.00000     0.00000     0

 24 26  0     0  0            999 V2000
    0.2583    0.4833    0.0000 N   0  0  3  0  0  0           0  0  0
    0.6125    1.2292    0.0000 C   0  0  0  0  0  0           0  0  0
    1.3583    0.8792    0.0000 C   0  0  3  0  0  0           0  0  0
    1.0125    0.1250    0.0000 C   0  0  3  0  0  0           0  0  0
   -0.5625    0.4000    0.0000 N   0  0  0  0  0  0           0  0  0
   -1.1750    0.9583    0.0000 C   0  0  0  0  0  0           0  0  0
   -1.9708    0.7083    0.0000 C   0  0  0  0  0  0           0  0  0
    1.3750   -0.6167    0.0000 C   0  0  0  0  0  0           0  0  0
    0.3292    2.0167    0.0000 O   0  0  0  0  0  0           0  0  0
   -2.5708    1.2792    0.0000 C   0  0  0  0  0  0           0  0  0
   -1.0000    1.7667    0.0000 O   0  0  0  0  0  0           0  0  0
    2.1417    1.1625    0.0000 Cl  0  0  0  0  0  0           0  0  0
    0.9167   -1.3000    0.0000 C   0  0  0  0  0  0           0  0  0
    2.2000   -0.6667    0.0000 C   0  0  0  0  0  0           0  0  0
    2.1000   -2.0958    0.0000 C   0  0  0  0  0  0           0  0  0
    1.2792   -2.0375    0.0000 C   0  0  0  0  0  0           0  0  0
    2.5667   -1.4083    0.0000 C   0  0  0  0  0  0           0  0  0
   -2.3625    2.0917    0.0000 O   0  0  0  0  0  0           0  0  0
   -2.1500   -0.0958    0.0000 C   0  0  0  0  0  0           0  0  0
    2.3125   -2.8917    0.0000 O   0  0  0  0  0  0           0  0  0
   -3.3625    1.0417    0.0000 C   0  0  0  0  0  0           0  0  0
    3.1375   -2.8917    0.0000 C   0  0  0  0  0  0           0  0  0
   -2.9458   -0.3333    0.0000 C   0  0  0  0  0  0           0  0  0
   -3.5500    0.2375    0.0000 C   0  0  0  0  0  0           0  0  0
  2  1  1  0     0  0
  3  2  1  0     0  0
  4  1  1  0     0  0
  5  1  1  0     0  0
  6  5  1  0     0  0
  7  6  1  0     0  0
  8  4  1  0     0  0
  9  2  2  0     0  0
 10  7  2  0     0  0
 11  6  2  0     0  0
 12  3  1  0     0  0
 13  8  2  0     0  0
 14  8  1  0     0  0
 15 17  1  0     0  0
 16 13  1  0     0  0
 17 14  2  0     0  0
 18 10  1  0     0  0
 19  7  1  0     0  0
 20 15  1  0     0  0
 21 10  1  0     0  0
 22 20  1  0     0  0
 23 19  2  0     0  0
 24 23  1  0     0  0
  3  4  1  0     0  0
 15 16  2  0     0  0
 24 21  2  0     0  0
M  END
>  <prID>
183

>  <IDDB>
71155

>  <pIC50_HIV_Integrase>
3.777283529

>  <Q>
-2.081912272

>  <Activity_Integrase>
Inactive_Integrase

NA
NA
NA
NA
$$$$

  Accelrys05311914332D 1   1.00000     0.00000     0

 25 27  0     0  0            999 V2000
    0.1583    0.6250    0.0000 N   0  0  3  0  0  0           0  0  0
    0.5125    1.3708    0.0000 C   0  0  0  0  0  0           0  0  0
    1.2625    1.0208    0.0000 C   0  0  3  0  0  0           0  0  0
    0.9125    0.2667    0.0000 C   0  0  3  0  0  0           0  0  0
   -0.6625    0.5458    0.0000 N   0  0  0  0  0  0           0  0  0
   -1.2708    1.1000    0.0000 C   0  0  0  0  0  0           0  0  0
    2.4125   -2.6625    0.0000 N   0  3  0  0  0  0           0  0  0
   -2.0708    0.8542    0.0000 C   0  0  0  0  0  0           0  0  0
    2.0042   -1.9542    0.0000 C   0  0  0  0  0  0           0  0  0
    1.2750   -0.4708    0.0000 C   0  0  0  0  0  0           0  0  0
    0.2292    2.1625    0.0000 O   0  0  0  0  0  0           0  0  0
    1.9958   -3.3792    0.0000 O   0  5  0  0  0  0           0  0  0
    3.2083   -2.8792    0.0000 O   0  0  0  0  0  0           0  0  0
   -2.6667    1.4208    0.0000 C   0  0  0  0  0  0           0  0  0
   -1.1000    1.9125    0.0000 O   0  0  0  0  0  0           0  0  0
    2.0458    1.3042    0.0000 Cl  0  0  0  0  0  0           0  0  0
    2.4708   -1.2667    0.0000 C   0  0  0  0  0  0           0  0  0
    1.1833   -1.9000    0.0000 C   0  0  0  0  0  0           0  0  0
    0.8167   -1.1583    0.0000 C   0  0  0  0  0  0           0  0  0
    2.1000   -0.5250    0.0000 C   0  0  0  0  0  0           0  0  0
   -2.4625    2.2375    0.0000 O   0  0  0  0  0  0           0  0  0
   -2.2500    0.0458    0.0000 C   0  0  0  0  0  0           0  0  0
   -3.4583    1.1833    0.0000 C   0  0  0  0  0  0           0  0  0
   -3.0458   -0.1917    0.0000 C   0  0  0  0  0  0           0  0  0
   -3.6500    0.3792    0.0000 C   0  0  0  0  0  0           0  0  0
  2  1  1  0     0  0
  3  2  1  0     0  0
  4  1  1  0     0  0
  5  1  1  0     0  0
  6  5  1  0     0  0
  7  9  1  0     0  0
  8  6  1  0     0  0
  9 17  1  0     0  0
 10  4  1  0     0  0
 11  2  2  0     0  0
 12  7  1  0     0  0
 13  7  2  0     0  0
 14  8  2  0     0  0
 15  6  2  0     0  0
 16  3  1  0     0  0
 17 20  2  0     0  0
 18 19  1  0     0  0
 19 10  2  0     0  0
 20 10  1  0     0  0
 21 14  1  0     0  0
 22  8  1  0     0  0
 23 14  1  0     0  0
 24 22  2  0     0  0
 25 24  1  0     0  0
  3  4  1  0     0  0
  9 18  2  0     0  0
 25 23  2  0     0  0
M  CHG  2   7   1  12  -1
M  END
>  <prID>
184

>  <IDDB>
71156

>  <pIC50_HIV_Integrase>
3.945295105

>  <Q>
-2.015448339

>  <Activity_Integrase>
Inactive_Integrase

NA
NA
NA
NA
$$$$

  Accelrys05311914332D 1   1.00000     0.00000     0

 23 25  0     0  0            999 V2000
    0.3792    0.2292    0.0000 N   0  0  3  0  0  0           0  0  0
    0.7333    0.9750    0.0000 C   0  0  0  0  0  0           0  0  0
    1.1333   -0.1250    0.0000 C   0  0  3  0  0  0           0  0  0
    1.4833    0.6208    0.0000 C   0  0  3  0  0  0           0  0  0
   -0.4417    0.1500    0.0000 N   0  0  0  0  0  0           0  0  0
   -1.0500    0.7042    0.0000 C   0  0  0  0  0  0           0  0  0
    1.4958   -0.8667    0.0000 C   0  0  0  0  0  0           0  0  0
   -1.8458    0.4583    0.0000 C   0  0  0  0  0  0           0  0  0
    0.4500    1.7625    0.0000 O   0  0  0  0  0  0           0  0  0
   -2.4458    1.0250    0.0000 C   0  0  0  0  0  0           0  0  0
   -0.8750    1.5167    0.0000 O   0  0  0  0  0  0           0  0  0
    2.3250   -0.9208    0.0000 C   0  0  0  0  0  0           0  0  0
    2.2667    0.9083    0.0000 Cl  0  0  0  0  0  0           0  0  0
   -2.2417    1.8417    0.0000 O   0  0  0  0  0  0           0  0  0
    2.7333   -0.2000    0.0000 O   0  0  0  0  0  0           0  0  0
   -2.0250   -0.3500    0.0000 C   0  0  0  0  0  0           0  0  0
    1.0375   -1.5542    0.0000 C   0  0  0  0  0  0           0  0  0
   -3.2375    0.7875    0.0000 C   0  0  0  0  0  0           0  0  0
    2.6917   -1.6625    0.0000 C   0  0  0  0  0  0           0  0  0
   -2.8208   -0.5875    0.0000 C   0  0  0  0  0  0           0  0  0
    1.4042   -2.2958    0.0000 C   0  0  0  0  0  0           0  0  0
    2.2250   -2.3500    0.0000 C   0  0  0  0  0  0           0  0  0
   -3.4250   -0.0167    0.0000 C   0  0  0  0  0  0           0  0  0
  2  1  1  0     0  0
  3  1  1  0     0  0
  4  2  1  0     0  0
  5  1  1  0     0  0
  6  5  1  0     0  0
  7  3  1  0     0  0
  8  6  1  0     0  0
  9  2  2  0     0  0
 10  8  2  0     0  0
 11  6  2  0     0  0
 12  7  1  0     0  0
 13  4  1  0     0  0
 14 10  1  0     0  0
 15 12  1  0     0  0
 16  8  1  0     0  0
 17  7  2  0     0  0
 18 10  1  0     0  0
 19 12  2  0     0  0
 20 16  2  0     0  0
 21 17  1  0     0  0
 22 21  2  0     0  0
 23 20  1  0     0  0
  4  3  1  0     0  0
 22 19  1  0     0  0
 23 18  2  0     0  0
M  END
>  <prID>
185

>  <IDDB>
71157

>  <pIC50_HIV_Integrase>
3.578396073

>  <Q>
-2.672693573

>  <Activity_Integrase>
Inactive_Integrase

NA
NA
NA
NA
$$$$

  Accelrys05311914332D 1   1.00000     0.00000     0

 23 25  0     0  0            999 V2000
    0.3792    0.2292    0.0000 N   0  0  3  0  0  0           0  0  0
    0.7333    0.9750    0.0000 C   0  0  0  0  0  0           0  0  0
    1.1333   -0.1250    0.0000 C   0  0  3  0  0  0           0  0  0
    1.4833    0.6208    0.0000 C   0  0  3  0  0  0           0  0  0
   -0.4417    0.1500    0.0000 N   0  0  0  0  0  0           0  0  0
   -1.0500    0.7042    0.0000 C   0  0  0  0  0  0           0  0  0
    1.4958   -0.8667    0.0000 C   0  0  0  0  0  0           0  0  0
   -1.8458    0.4583    0.0000 C   0  0  0  0  0  0           0  0  0
    0.4500    1.7625    0.0000 O   0  0  0  0  0  0           0  0  0
    2.3250   -0.9208    0.0000 C   0  0  0  0  0  0           0  0  0
   -2.4458    1.0250    0.0000 C   0  0  0  0  0  0           0  0  0
   -0.8750    1.5167    0.0000 O   0  0  0  0  0  0           0  0  0
    2.2667    0.9083    0.0000 Cl  0  0  0  0  0  0           0  0  0
    2.7333   -0.2000    0.0000 Cl  0  0  0  0  0  0           0  0  0
   -2.2417    1.8417    0.0000 O   0  0  0  0  0  0           0  0  0
   -2.0250   -0.3500    0.0000 C   0  0  0  0  0  0           0  0  0
    1.0375   -1.5542    0.0000 C   0  0  0  0  0  0           0  0  0
   -3.2375    0.7875    0.0000 C   0  0  0  0  0  0           0  0  0
    2.6917   -1.6625    0.0000 C   0  0  0  0  0  0           0  0  0
   -2.8208   -0.5875    0.0000 C   0  0  0  0  0  0           0  0  0
    1.4042   -2.2958    0.0000 C   0  0  0  0  0  0           0  0  0
    2.2250   -2.3500    0.0000 C   0  0  0  0  0  0           0  0  0
   -3.4250   -0.0167    0.0000 C   0  0  0  0  0  0           0  0  0
  2  1  1  0     0  0
  3  1  1  0     0  0
  4  2  1  0     0  0
  5  1  1  0     0  0
  6  5  1  0     0  0
  7  3  1  0     0  0
  8  6  1  0     0  0
  9  2  2  0     0  0
 10  7  1  0     0  0
 11  8  2  0     0  0
 12  6  2  0     0  0
 13  4  1  0     0  0
 14 10  1  0     0  0
 15 11  1  0     0  0
 16  8  1  0     0  0
 17  7  2  0     0  0
 18 11  1  0     0  0
 19 10  2  0     0  0
 20 16  2  0     0  0
 21 17  1  0     0  0
 22 21  2  0     0  0
 23 20  1  0     0  0
  4  3  1  0     0  0
 22 19  1  0     0  0
 23 18  2  0     0  0
M  END
>  <prID>
186

>  <IDDB>
71158

>  <pIC50_HIV_Integrase>
4.026872146

>  <Q>
-2.769092272

>  <Activity_Integrase>
Inactive_Integrase

NA
NA
NA
NA
$$$$

  Accelrys05311914332D 1   1.00000     0.00000     0

 23 25  0     0  0            999 V2000
    0.4583    0.3500    0.0000 N   0  0  3  0  0  0           0  0  0
    0.8083    1.1000    0.0000 C   0  0  0  0  0  0           0  0  0
    1.5583    0.7458    0.0000 C   0  0  3  0  0  0           0  0  0
    1.2125   -0.0042    0.0000 C   0  0  3  0  0  0           0  0  0
   -0.3667    0.2708    0.0000 N   0  0  0  0  0  0           0  0  0
   -0.9750    0.8250    0.0000 C   0  0  0  0  0  0           0  0  0
   -1.7708    0.5792    0.0000 C   0  0  0  0  0  0           0  0  0
    1.5708   -0.7458    0.0000 C   0  0  0  0  0  0           0  0  0
    0.5250    1.8833    0.0000 O   0  0  0  0  0  0           0  0  0
    1.1167   -1.4292    0.0000 C   0  0  0  0  0  0           0  0  0
   -2.3708    1.1458    0.0000 C   0  0  0  0  0  0           0  0  0
   -0.8000    1.6375    0.0000 O   0  0  0  0  0  0           0  0  0
    2.3417    1.0292    0.0000 Cl  0  0  0  0  0  0           0  0  0
    1.4792   -2.1750    0.0000 C   0  0  0  0  0  0           0  0  0
    1.0625   -2.8833    0.0000 Cl  0  0  0  0  0  0           0  0  0
   -2.1625    1.9625    0.0000 O   0  0  0  0  0  0           0  0  0
    2.4000   -0.8000    0.0000 C   0  0  0  0  0  0           0  0  0
   -1.9500   -0.2292    0.0000 C   0  0  0  0  0  0           0  0  0
    2.7667   -1.5417    0.0000 C   0  0  0  0  0  0           0  0  0
   -3.1625    0.9083    0.0000 C   0  0  0  0  0  0           0  0  0
    2.3000   -2.2250    0.0000 C   0  0  0  0  0  0           0  0  0
   -2.7458   -0.4625    0.0000 C   0  0  0  0  0  0           0  0  0
   -3.3500    0.1042    0.0000 C   0  0  0  0  0  0           0  0  0
  2  1  1  0     0  0
  3  2  1  0     0  0
  4  1  1  0     0  0
  5  1  1  0     0  0
  6  5  1  0     0  0
  7  6  1  0     0  0
  8  4  1  0     0  0
  9  2  2  0     0  0
 10  8  2  0     0  0
 11  7  2  0     0  0
 12  6  2  0     0  0
 13  3  1  0     0  0
 14 10  1  0     0  0
 15 14  1  0     0  0
 16 11  1  0     0  0
 17  8  1  0     0  0
 18  7  1  0     0  0
 19 17  2  0     0  0
 20 11  1  0     0  0
 21 19  1  0     0  0
 22 18  2  0     0  0
 23 22  1  0     0  0
  3  4  1  0     0  0
 21 14  2  0     0  0
 23 20  2  0     0  0
M  END
>  <prID>
187

>  <IDDB>
71159

>  <pIC50_HIV_Integrase>
3.903089987

>  <Q>
-2.772399746

>  <Activity_Integrase>
Inactive_Integrase

NA
NA
NA
NA
$$$$

  Accelrys05311914332D 1   1.00000     0.00000     0

 23 25  0     0  0            999 V2000
    0.3958    0.3583    0.0000 N   0  0  3  0  0  0           0  0  0
    0.7458    1.1000    0.0000 C   0  0  0  0  0  0           0  0  0
    1.5000    0.7542    0.0000 C   0  0  3  0  0  0           0  0  0
    1.1458    0.0000    0.0000 C   0  0  3  0  0  0           0  0  0
   -0.4292    0.2792    0.0000 N   0  0  0  0  0  0           0  0  0
   -1.0375    0.8333    0.0000 C   0  0  0  0  0  0           0  0  0
   -1.8375    0.5833    0.0000 C   0  0  0  0  0  0           0  0  0
    1.5083   -0.7375    0.0000 C   0  0  0  0  0  0           0  0  0
    0.4625    1.8917    0.0000 O   0  0  0  0  0  0           0  0  0
   -2.4333    1.1542    0.0000 C   0  0  0  0  0  0           0  0  0
   -0.8625    1.6417    0.0000 O   0  0  0  0  0  0           0  0  0
    2.2792    1.0375    0.0000 Cl  0  0  0  0  0  0           0  0  0
    1.0542   -1.4250    0.0000 C   0  0  0  0  0  0           0  0  0
    2.3375   -0.7958    0.0000 C   0  0  0  0  0  0           0  0  0
    2.2375   -2.2208    0.0000 C   0  0  0  0  0  0           0  0  0
    1.4167   -2.1667    0.0000 C   0  0  0  0  0  0           0  0  0
    2.7042   -1.5375    0.0000 C   0  0  0  0  0  0           0  0  0
   -2.2292    1.9667    0.0000 O   0  0  0  0  0  0           0  0  0
   -2.0167   -0.2208    0.0000 C   0  0  0  0  0  0           0  0  0
    2.4500   -3.0167    0.0000 O   0  0  0  0  0  0           0  0  0
   -3.2208    0.9167    0.0000 C   0  0  0  0  0  0           0  0  0
   -2.8125   -0.4583    0.0000 C   0  0  0  0  0  0           0  0  0
   -3.4125    0.1083    0.0000 C   0  0  0  0  0  0           0  0  0
  2  1  1  0     0  0
  3  2  1  0     0  0
  4  1  1  0     0  0
  5  1  1  0     0  0
  6  5  1  0     0  0
  7  6  1  0     0  0
  8  4  1  0     0  0
  9  2  2  0     0  0
 10  7  2  0     0  0
 11  6  2  0     0  0
 12  3  1  0     0  0
 13  8  2  0     0  0
 14  8  1  0     0  0
 15 17  1  0     0  0
 16 13  1  0     0  0
 17 14  2  0     0  0
 18 10  1  0     0  0
 19  7  1  0     0  0
 20 15  1  0     0  0
 21 10  1  0     0  0
 22 19  2  0     0  0
 23 22  1  0     0  0
  3  4  1  0     0  0
 15 16  2  0     0  0
 23 21  2  0     0  0
M  END
>  <prID>
188

>  <IDDB>
71160

>  <pIC50_HIV_Integrase>
3.54515514

>  <Q>
-2.665410822

>  <Activity_Integrase>
Inactive_Integrase

NA
NA
NA
NA
$$$$

  Accelrys05311914332D 1   1.00000     0.00000     0

 23 25  0     0  0            999 V2000
    0.3458    0.2917    0.0000 N   0  0  3  0  0  0           0  0  0
    0.7000    1.0417    0.0000 C   0  0  0  0  0  0           0  0  0
    1.4500    0.6875    0.0000 C   0  0  3  0  0  0           0  0  0
    1.1000   -0.0625    0.0000 C   0  0  3  0  0  0           0  0  0
   -0.4792    0.2125    0.0000 N   0  0  0  0  0  0           0  0  0
   -1.0833    0.7667    0.0000 C   0  0  0  0  0  0           0  0  0
   -1.8833    0.5208    0.0000 C   0  0  0  0  0  0           0  0  0
    1.4625   -0.8042    0.0000 C   0  0  0  0  0  0           0  0  0
    0.4167    1.8250    0.0000 O   0  0  0  0  0  0           0  0  0
   -2.4833    1.0875    0.0000 C   0  0  0  0  0  0           0  0  0
    2.2917   -0.8583    0.0000 C   0  0  0  0  0  0           0  0  0
   -0.9083    1.5792    0.0000 O   0  0  0  0  0  0           0  0  0
    2.2333    0.9708    0.0000 Cl  0  0  0  0  0  0           0  0  0
    2.6583   -1.6000    0.0000 C   0  0  0  0  0  0           0  0  0
   -2.2750    1.9000    0.0000 O   0  0  0  0  0  0           0  0  0
    1.0042   -1.4875    0.0000 C   0  0  0  0  0  0           0  0  0
   -2.0625   -0.2833    0.0000 C   0  0  0  0  0  0           0  0  0
    3.4792   -1.6000    0.0000 O   0  0  0  0  0  0           0  0  0
    1.3708   -2.2333    0.0000 C   0  0  0  0  0  0           0  0  0
   -3.2708    0.8500    0.0000 C   0  0  0  0  0  0           0  0  0
    2.1917   -2.2833    0.0000 C   0  0  0  0  0  0           0  0  0
   -2.8583   -0.5208    0.0000 C   0  0  0  0  0  0           0  0  0
   -3.4625    0.0458    0.0000 C   0  0  0  0  0  0           0  0  0
  2  1  1  0     0  0
  3  2  1  0     0  0
  4  1  1  0     0  0
  5  1  1  0     0  0
  6  5  1  0     0  0
  7  6  1  0     0  0
  8  4  1  0     0  0
  9  2  2  0     0  0
 10  7  2  0     0  0
 11  8  1  0     0  0
 12  6  2  0     0  0
 13  3  1  0     0  0
 14 11  2  0     0  0
 15 10  1  0     0  0
 16  8  2  0     0  0
 17  7  1  0     0  0
 18 14  1  0     0  0
 19 16  1  0     0  0
 20 10  1  0     0  0
 21 19  2  0     0  0
 22 17  2  0     0  0
 23 22  1  0     0  0
  3  4  1  0     0  0
 21 14  1  0     0  0
 23 20  2  0     0  0
M  END
>  <prID>
189

>  <IDDB>
71161

>  <pIC50_HIV_Integrase>
3.815726401

>  <Q>
-2.663889842

>  <Activity_Integrase>
Inactive_Integrase

NA
NA
NA
NA
$$$$

  Accelrys05311914332D 1   1.00000     0.00000     0

 25 27  0     0  0            999 V2000
    0.0792    0.4542    0.0000 N   0  0  3  0  0  0           0  0  0
    0.4333    1.2000    0.0000 C   0  0  0  0  0  0           0  0  0
    1.1833    0.8458    0.0000 C   0  0  3  0  0  0           0  0  0
    0.8333    0.0958    0.0000 C   0  0  3  0  0  0           0  0  0
   -0.7417    0.3750    0.0000 N   0  0  0  0  0  0           0  0  0
   -1.3500    0.9292    0.0000 C   0  0  0  0  0  0           0  0  0
    1.1958   -0.6417    0.0000 C   0  0  0  0  0  0           0  0  0
   -2.1500    0.6833    0.0000 C   0  0  0  0  0  0           0  0  0
    2.0250   -0.7000    0.0000 C   0  0  0  0  0  0           0  0  0
    0.1500    1.9833    0.0000 O   0  0  0  0  0  0           0  0  0
    2.3917   -1.4375    0.0000 C   0  0  0  0  0  0           0  0  0
   -2.7458    1.2500    0.0000 C   0  0  0  0  0  0           0  0  0
   -1.1792    1.7417    0.0000 O   0  0  0  0  0  0           0  0  0
    0.7375   -1.3292    0.0000 C   0  0  0  0  0  0           0  0  0
    1.9667    1.1333    0.0000 Cl  0  0  0  0  0  0           0  0  0
    1.9250   -2.1250    0.0000 C   0  0  0  0  0  0           0  0  0
    1.1042   -2.0708    0.0000 C   0  0  0  0  0  0           0  0  0
    3.2167   -1.4375    0.0000 O   0  0  0  0  0  0           0  0  0
   -2.5417    2.0625    0.0000 O   0  0  0  0  0  0           0  0  0
    2.3333   -2.8375    0.0000 O   0  0  0  0  0  0           0  0  0
   -2.3292   -0.1250    0.0000 C   0  0  0  0  0  0           0  0  0
   -3.5375    1.0125    0.0000 C   0  0  0  0  0  0           0  0  0
    3.8000   -0.8500    0.0000 C   0  0  0  0  0  0           0  0  0
   -3.1208   -0.3625    0.0000 C   0  0  0  0  0  0           0  0  0
   -3.7250    0.2042    0.0000 C   0  0  0  0  0  0           0  0  0
  2  1  1  0     0  0
  3  2  1  0     0  0
  4  1  1  0     0  0
  5  1  1  0     0  0
  6  5  1  0     0  0
  7  4  1  0     0  0
  8  6  1  0     0  0
  9  7  1  0     0  0
 10  2  2  0     0  0
 11  9  2  0     0  0
 12  8  2  0     0  0
 13  6  2  0     0  0
 14  7  2  0     0  0
 15  3  1  0     0  0
 16 17  2  0     0  0
 17 14  1  0     0  0
 18 11  1  0     0  0
 19 12  1  0     0  0
 20 16  1  0     0  0
 21  8  1  0     0  0
 22 12  1  0     0  0
 23 18  1  0     0  0
 24 21  2  0     0  0
 25 24  1  0     0  0
  3  4  1  0     0  0
 16 11  1  0     0  0
 25 22  2  0     0  0
M  END
>  <prID>
190

>  <IDDB>
71162

>  <pIC50_HIV_Integrase>
3.581698709

>  <Q>
-2.896014991

>  <Activity_Integrase>
Inactive_Integrase

NA
NA
NA
NA
$$$$

  Accelrys05311914332D 1   1.00000     0.00000     0

 26 28  0     0  0            999 V2000
    0.0083    0.5875    0.0000 N   0  0  3  0  0  0           0  0  0
    0.3583    1.3375    0.0000 C   0  0  0  0  0  0           0  0  0
    1.1125    0.9833    0.0000 C   0  0  3  0  0  0           0  0  0
    0.7583    0.2333    0.0000 C   0  0  3  0  0  0           0  0  0
   -0.8167    0.5083    0.0000 N   0  0  0  0  0  0           0  0  0
   -1.4250    1.0625    0.0000 C   0  0  0  0  0  0           0  0  0
    1.1208   -0.5083    0.0000 C   0  0  0  0  0  0           0  0  0
   -2.2208    0.8167    0.0000 C   0  0  0  0  0  0           0  0  0
    1.9500   -0.5583    0.0000 C   0  0  0  0  0  0           0  0  0
    0.0792    2.1208    0.0000 O   0  0  0  0  0  0           0  0  0
    2.3167   -1.3000    0.0000 C   0  0  0  0  0  0           0  0  0
   -2.8208    1.3833    0.0000 C   0  0  0  0  0  0           0  0  0
   -1.2500    1.8750    0.0000 O   0  0  0  0  0  0           0  0  0
    0.6667   -1.1917    0.0000 C   0  0  0  0  0  0           0  0  0
    1.8958    1.2667    0.0000 Cl  0  0  0  0  0  0           0  0  0
    1.8500   -1.9875    0.0000 C   0  0  0  0  0  0           0  0  0
    1.0292   -1.9333    0.0000 C   0  0  0  0  0  0           0  0  0
    3.1417   -1.3000    0.0000 O   0  0  0  0  0  0           0  0  0
   -2.6167    2.2000    0.0000 O   0  0  0  0  0  0           0  0  0
   -2.4000    0.0125    0.0000 C   0  0  0  0  0  0           0  0  0
    2.2583   -2.7000    0.0000 O   0  0  0  0  0  0           0  0  0
   -3.6083    1.1458    0.0000 C   0  0  0  0  0  0           0  0  0
    3.7250   -0.7125    0.0000 C   0  0  0  0  0  0           0  0  0
    1.8417   -3.4125    0.0000 C   0  0  0  0  0  0           0  0  0
   -3.2000   -0.2250    0.0000 C   0  0  0  0  0  0           0  0  0
   -3.8000    0.3417    0.0000 C   0  0  0  0  0  0           0  0  0
  2  1  1  0     0  0
  3  2  1  0     0  0
  4  1  1  0     0  0
  5  1  1  0     0  0
  6  5  1  0     0  0
  7  4  1  0     0  0
  8  6  1  0     0  0
  9  7  1  0     0  0
 10  2  2  0     0  0
 11  9  2  0     0  0
 12  8  2  0     0  0
 13  6  2  0     0  0
 14  7  2  0     0  0
 15  3  1  0     0  0
 16 17  2  0     0  0
 17 14  1  0     0  0
 18 11  1  0     0  0
 19 12  1  0     0  0
 20  8  1  0     0  0
 21 16  1  0     0  0
 22 12  1  0     0  0
 23 18  1  0     0  0
 24 21  1  0     0  0
 25 20  2  0     0  0
 26 25  1  0     0  0
  3  4  1  0     0  0
 16 11  1  0     0  0
 26 22  2  0     0  0
M  END
>  <prID>
191

>  <IDDB>
71163

>  <pIC50_HIV_Integrase>
3.974694135

>  <Q>
-2.312079487

>  <Activity_Integrase>
Inactive_Integrase

NA
NA
NA
NA
$$$$

  Accelrys05311914332D 1   1.00000     0.00000     0

 28 30  0     0  0            999 V2000
    0.0042    0.7625    0.0000 N   0  0  3  0  0  0           0  0  0
    0.3583    1.5083    0.0000 C   0  0  0  0  0  0           0  0  0
    1.1083    1.1583    0.0000 C   0  0  3  0  0  0           0  0  0
    0.7583    0.4042    0.0000 C   0  0  3  0  0  0           0  0  0
   -0.8208    0.6833    0.0000 N   0  0  0  0  0  0           0  0  0
   -1.4250    1.2375    0.0000 C   0  0  0  0  0  0           0  0  0
    1.1167   -0.3375    0.0000 C   0  0  0  0  0  0           0  0  0
   -2.2250    0.9875    0.0000 C   0  0  0  0  0  0           0  0  0
    1.8500   -1.8167    0.0000 C   0  0  0  0  0  0           0  0  0
    2.3167   -1.1292    0.0000 C   0  0  0  0  0  0           0  0  0
    1.0292   -1.7625    0.0000 C   0  0  0  0  0  0           0  0  0
    1.9458   -0.3875    0.0000 C   0  0  0  0  0  0           0  0  0
    0.6625   -1.0167    0.0000 C   0  0  0  0  0  0           0  0  0
    0.0750    2.2958    0.0000 O   0  0  0  0  0  0           0  0  0
   -2.8208    1.5583    0.0000 C   0  0  0  0  0  0           0  0  0
   -1.2542    2.0458    0.0000 O   0  0  0  0  0  0           0  0  0
    1.8917    1.4417    0.0000 Cl  0  0  0  0  0  0           0  0  0
    2.2583   -2.5292    0.0000 O   0  0  0  0  0  0           0  0  0
    0.4375   -2.3458    0.0000 O   0  0  0  0  0  0           0  0  0
    3.1375   -1.1292    0.0000 O   0  0  0  0  0  0           0  0  0
   -2.6208    2.3708    0.0000 O   0  0  0  0  0  0           0  0  0
   -2.4042    0.1833    0.0000 C   0  0  0  0  0  0           0  0  0
   -3.6125    1.3208    0.0000 C   0  0  0  0  0  0           0  0  0
    1.8375   -3.2375    0.0000 C   0  0  0  0  0  0           0  0  0
    3.7208   -0.5375    0.0000 C   0  0  0  0  0  0           0  0  0
   -0.3625   -2.1292    0.0000 C   0  0  0  0  0  0           0  0  0
   -3.2000   -0.0542    0.0000 C   0  0  0  0  0  0           0  0  0
   -3.8042    0.5167    0.0000 C   0  0  0  0  0  0           0  0  0
  2  1  1  0     0  0
  3  2  1  0     0  0
  4  1  1  0     0  0
  5  1  1  0     0  0
  6  5  1  0     0  0
  7  4  1  0     0  0
  8  6  1  0     0  0
  9 10  1  0     0  0
 10 12  2  0     0  0
 11 13  1  0     0  0
 12  7  1  0     0  0
 13  7  2  0     0  0
 14  2  2  0     0  0
 15  8  2  0     0  0
 16  6  2  0     0  0
 17  3  1  0     0  0
 18  9  1  0     0  0
 19 11  1  0     0  0
 20 10  1  0     0  0
 21 15  1  0     0  0
 22  8  1  0     0  0
 23 15  1  0     0  0
 24 18  1  0     0  0
 25 20  1  0     0  0
 26 19  1  0     0  0
 27 22  2  0     0  0
 28 27  1  0     0  0
  3  4  1  0     0  0
  9 11  2  0     0  0
 28 23  2  0     0  0
M  END
>  <prID>
192

>  <IDDB>
71165

>  <pIC50_HIV_Integrase>
4.132532512

>  <Q>
-2.545417829

>  <Activity_Integrase>
Inactive_Integrase

NA
NA
NA
NA
$$$$

  Accelrys05311914332D 1   1.00000     0.00000     0

 27 30  0     0  0            999 V2000
   -0.0375    0.4000    0.0000 N   0  0  3  0  0  0           0  0  0
    0.3167    1.1458    0.0000 C   0  0  0  0  0  0           0  0  0
    0.7167    0.0417    0.0000 C   0  0  3  0  0  0           0  0  0
    1.0667    0.7958    0.0000 C   0  0  3  0  0  0           0  0  0
    1.0792   -0.7000    0.0000 C   0  0  0  0  0  0           0  0  0
   -0.8625    0.3208    0.0000 N   0  0  0  0  0  0           0  0  0
   -1.4708    0.8750    0.0000 C   0  0  0  0  0  0           0  0  0
   -2.2667    0.6292    0.0000 C   0  0  0  0  0  0           0  0  0
    1.9042   -0.7500    0.0000 C   0  0  0  0  0  0           0  0  0
    0.6208   -1.3792    0.0000 C   0  0  0  0  0  0           0  0  0
    0.0333    1.9333    0.0000 O   0  0  0  0  0  0           0  0  0
   -2.8667    1.2000    0.0000 C   0  0  0  0  0  0           0  0  0
   -1.2958    1.6833    0.0000 O   0  0  0  0  0  0           0  0  0
    1.8458    1.0833    0.0000 Cl  0  0  0  0  0  0           0  0  0
    2.2667   -1.4875    0.0000 C   0  0  0  0  0  0           0  0  0
    0.9833   -2.1208    0.0000 C   0  0  0  0  0  0           0  0  0
    1.8042   -2.1792    0.0000 C   0  0  0  0  0  0           0  0  0
   -0.2083   -1.3792    0.0000 O   0  0  0  0  0  0           0  0  0
   -2.6625    2.0083    0.0000 O   0  0  0  0  0  0           0  0  0
   -2.4458   -0.1792    0.0000 C   0  0  0  0  0  0           0  0  0
    2.3583   -0.0708    0.0000 C   0  0  0  0  0  0           0  0  0
   -3.6542    0.9625    0.0000 C   0  0  0  0  0  0           0  0  0
    3.0875   -1.5417    0.0000 C   0  0  0  0  0  0           0  0  0
   -3.2417   -0.4167    0.0000 C   0  0  0  0  0  0           0  0  0
    3.1792   -0.1208    0.0000 C   0  0  0  0  0  0           0  0  0
   -3.8458    0.1542    0.0000 C   0  0  0  0  0  0           0  0  0
    3.5458   -0.8583    0.0000 C   0  0  0  0  0  0           0  0  0
  2  1  1  0     0  0
  3  1  1  0     0  0
  4  2  1  0     0  0
  5  3  1  0     0  0
  6  1  1  0     0  0
  7  6  1  0     0  0
  8  7  1  0     0  0
  9  5  1  0     0  0
 10  5  2  0     0  0
 11  2  2  0     0  0
 12  8  2  0     0  0
 13  7  2  0     0  0
 14  4  1  0     0  0
 15  9  1  0     0  0
 16 10  1  0     0  0
 17 16  2  0     0  0
 18 10  1  0     0  0
 19 12  1  0     0  0
 20  8  1  0     0  0
 21  9  2  0     0  0
 22 12  1  0     0  0
 23 15  2  0     0  0
 24 20  2  0     0  0
 25 21  1  0     0  0
 26 24  1  0     0  0
 27 25  2  0     0  0
  4  3  1  0     0  0
 17 15  1  0     0  0
 26 22  2  0     0  0
 27 23  1  0     0  0
M  END
>  <prID>
193

>  <IDDB>
71166

>  <pIC50_HIV_Integrase>
3.653647026

>  <Q>
-2.315032288

>  <Activity_Integrase>
Inactive_Integrase

NA
NA
NA
NA
$$$$

  Accelrys05311914332D 1   1.00000     0.00000     0

 24 26  0     0  0            999 V2000
   -0.6958    0.2208    0.0000 N   0  0  3  0  0  0           0  0  0
    0.6458    0.3583    0.0000 C   0  0  0  0  0  0           0  0  0
   -0.0625    0.7792    0.0000 C   0  0  0  0  0  0           0  0  0
   -0.3583   -0.5292    0.0000 N   0  0  0  0  0  0           0  0  0
   -1.5000    0.3917    0.0000 C   0  0  0  0  0  0           0  0  0
    0.4667   -0.4500    0.0000 C   0  0  0  0  0  0           0  0  0
    1.3750    0.7625    0.0000 C   0  0  0  0  0  0           0  0  0
   -2.0458   -0.2292    0.0000 C   0  0  0  0  0  0           0  0  0
    2.0917    0.3417    0.0000 C   0  0  0  0  0  0           0  0  0
   -0.1417    1.6042    0.0000 O   0  0  0  0  0  0           0  0  0
   -1.7625    1.1833    0.0000 O   0  0  0  0  0  0           0  0  0
   -2.8542   -0.0625    0.0000 C   0  0  0  0  0  0           0  0  0
    2.8042    0.7500    0.0000 C   0  0  0  0  0  0           0  0  0
   -1.7833   -1.0000    0.0000 C   0  0  0  0  0  0           0  0  0
   -3.1208    0.7292    0.0000 O   0  0  0  0  0  0           0  0  0
    2.8000    1.5833    0.0000 O   0  0  0  0  0  0           0  0  0
    1.0000   -1.0750    0.0000 C   0  0  0  0  0  0           0  0  0
    2.0917   -0.4958    0.0000 C   0  0  0  0  0  0           0  0  0
   -3.3958   -0.6833    0.0000 C   0  0  0  0  0  0           0  0  0
    3.5250    0.3417    0.0000 C   0  0  0  0  0  0           0  0  0
   -2.3250   -1.6208    0.0000 C   0  0  0  0  0  0           0  0  0
    2.8042   -0.9042    0.0000 C   0  0  0  0  0  0           0  0  0
   -3.1292   -1.4583    0.0000 C   0  0  0  0  0  0           0  0  0
    3.5250   -0.4917    0.0000 C   0  0  0  0  0  0           0  0  0
  2  3  1  0     0  0
  3  1  1  0     0  0
  4  1  1  0     0  0
  5  1  1  0     0  0
  6  4  2  0     0  0
  7  2  2  0     0  0
  8  5  1  0     0  0
  9  7  1  0     0  0
 10  3  2  0     0  0
 11  5  2  0     0  0
 12  8  2  0     0  0
 13  9  1  0     0  0
 14  8  1  0     0  0
 15 12  1  0     0  0
 16 13  1  0     0  0
 17  6  1  0     0  0
 18  9  2  0     0  0
 19 12  1  0     0  0
 20 13  2  0     0  0
 21 14  2  0     0  0
 22 18  1  0     0  0
 23 21  1  0     0  0
 24 22  2  0     0  0
  6  2  1  0     0  0
 23 19  2  0     0  0
 24 20  1  0     0  0
M  END
>  <prID>
194

>  <IDDB>
71167

>  <pIC50_HIV_Integrase>
5.552841969

>  <Q>
-0.820351872

>  <Activity_Integrase>
Inactive_Integrase

NA
NA
NA
NA
$$$$

  Accelrys05311914332D 1   1.00000     0.00000     0

 25 27  0     0  0            999 V2000
   -0.9208    0.3917    0.0000 N   0  0  3  0  0  0           0  0  0
    0.4167    0.5250    0.0000 C   0  0  0  0  0  0           0  0  0
   -0.2917    0.9458    0.0000 C   0  0  0  0  0  0           0  0  0
   -0.5833   -0.3625    0.0000 N   0  0  0  0  0  0           0  0  0
   -1.7292    0.5625    0.0000 C   0  0  0  0  0  0           0  0  0
    0.2375   -0.2792    0.0000 C   0  0  0  0  0  0           0  0  0
   -2.2708   -0.0583    0.0000 C   0  0  0  0  0  0           0  0  0
    1.1458    0.9333    0.0000 C   0  0  0  0  0  0           0  0  0
   -0.3708    1.7750    0.0000 O   0  0  0  0  0  0           0  0  0
   -1.9875    1.3500    0.0000 O   0  0  0  0  0  0           0  0  0
   -3.0792    0.1042    0.0000 C   0  0  0  0  0  0           0  0  0
    1.8625    0.5125    0.0000 C   0  0  0  0  0  0           0  0  0
    3.3000   -0.3250    0.0000 C   0  0  0  0  0  0           0  0  0
   -2.0083   -0.8333    0.0000 C   0  0  0  0  0  0           0  0  0
   -3.3458    0.9000    0.0000 O   0  0  0  0  0  0           0  0  0
    2.5792    0.9208    0.0000 C   0  0  0  0  0  0           0  0  0
    1.8667   -0.3250    0.0000 C   0  0  0  0  0  0           0  0  0
    0.7750   -0.9042    0.0000 C   0  0  0  0  0  0           0  0  0
    3.3000    0.5083    0.0000 C   0  0  0  0  0  0           0  0  0
    2.5792   -0.7375    0.0000 C   0  0  0  0  0  0           0  0  0
    4.0083   -0.7375    0.0000 O   0  0  0  0  0  0           0  0  0
   -3.6208   -0.5167    0.0000 C   0  0  0  0  0  0           0  0  0
    4.0042   -1.5583    0.0000 C   0  0  0  0  0  0           0  0  0
   -2.5542   -1.4542    0.0000 C   0  0  0  0  0  0           0  0  0
   -3.3542   -1.2875    0.0000 C   0  0  0  0  0  0           0  0  0
  2  3  1  0     0  0
  3  1  1  0     0  0
  4  1  1  0     0  0
  5  1  1  0     0  0
  6  4  2  0     0  0
  7  5  1  0     0  0
  8  2  2  0     0  0
  9  3  2  0     0  0
 10  5  2  0     0  0
 11  7  2  0     0  0
 12  8  1  0     0  0
 13 19  1  0     0  0
 14  7  1  0     0  0
 15 11  1  0     0  0
 16 12  1  0     0  0
 17 12  2  0     0  0
 18  6  1  0     0  0
 19 16  2  0     0  0
 20 17  1  0     0  0
 21 13  1  0     0  0
 22 11  1  0     0  0
 23 21  1  0     0  0
 24 14  2  0     0  0
 25 24  1  0     0  0
  6  2  1  0     0  0
 25 22  2  0     0  0
 13 20  2  0     0  0
M  END
>  <prID>
195

>  <IDDB>
71168

>  <pIC50_HIV_Integrase>
6.22184875

>  <Q>
-0.228562085

>  <Activity_Integrase>
Active_Integrase

NA
NA
NA
NA
$$$$

  Accelrys05311914332D 1   1.00000     0.00000     0

 26 28  0     0  0            999 V2000
   -1.1042    0.4125    0.0000 N   0  0  3  0  0  0           0  0  0
    0.2375    0.5458    0.0000 C   0  0  0  0  0  0           0  0  0
   -0.4792    0.9667    0.0000 C   0  0  0  0  0  0           0  0  0
   -0.7708   -0.3417    0.0000 N   0  0  0  0  0  0           0  0  0
   -1.9125    0.5833    0.0000 C   0  0  0  0  0  0           0  0  0
    0.0583   -0.2583    0.0000 C   0  0  0  0  0  0           0  0  0
   -2.4583   -0.0375    0.0000 C   0  0  0  0  0  0           0  0  0
    3.8208   -0.7167    0.0000 N   0  3  0  0  0  0           0  0  0
    0.9583    0.9500    0.0000 C   0  0  0  0  0  0           0  0  0
    3.1125   -0.3042    0.0000 C   0  0  0  0  0  0           0  0  0
   -0.5542    1.7958    0.0000 O   0  0  0  0  0  0           0  0  0
   -2.1708    1.3667    0.0000 O   0  0  0  0  0  0           0  0  0
    3.8167   -1.5375    0.0000 O   0  5  0  0  0  0           0  0  0
    4.6167   -0.5000    0.0000 O   0  0  0  0  0  0           0  0  0
   -3.2625    0.1250    0.0000 C   0  0  0  0  0  0           0  0  0
    1.6792    0.5292    0.0000 C   0  0  0  0  0  0           0  0  0
    2.3917   -0.7167    0.0000 C   0  0  0  0  0  0           0  0  0
    3.1125    0.5292    0.0000 C   0  0  0  0  0  0           0  0  0
   -2.1958   -0.8125    0.0000 C   0  0  0  0  0  0           0  0  0
    1.6792   -0.3042    0.0000 C   0  0  0  0  0  0           0  0  0
    2.3958    0.9417    0.0000 C   0  0  0  0  0  0           0  0  0
   -3.5333    0.9208    0.0000 O   0  0  0  0  0  0           0  0  0
    0.5917   -0.8833    0.0000 C   0  0  0  0  0  0           0  0  0
   -3.8083   -0.4958    0.0000 C   0  0  0  0  0  0           0  0  0
   -2.7375   -1.4333    0.0000 C   0  0  0  0  0  0           0  0  0
   -3.5417   -1.2667    0.0000 C   0  0  0  0  0  0           0  0  0
  2  3  1  0     0  0
  3  1  1  0     0  0
  4  1  1  0     0  0
  5  1  1  0     0  0
  6  4  2  0     0  0
  7  5  1  0     0  0
  8 10  1  0     0  0
  9  2  2  0     0  0
 10 18  1  0     0  0
 11  3  2  0     0  0
 12  5  2  0     0  0
 13  8  1  0     0  0
 14  8  2  0     0  0
 15  7  2  0     0  0
 16  9  1  0     0  0
 17 20  1  0     0  0
 18 21  2  0     0  0
 19  7  1  0     0  0
 20 16  2  0     0  0
 21 16  1  0     0  0
 22 15  1  0     0  0
 23  6  1  0     0  0
 24 15  1  0     0  0
 25 19  2  0     0  0
 26 25  1  0     0  0
  6  2  1  0     0  0
 26 24  2  0     0  0
 10 17  2  0     0  0
M  CHG  2   8   1  13  -1
M  END
>  <prID>
196

>  <IDDB>
71169

>  <pIC50_HIV_Integrase>
6.22184875

>  <Q>
-0.162092846

>  <Activity_Integrase>
Active_Integrase

NA
NA
NA
NA
$$$$

  Accelrys05311914332D 1   1.00000     0.00000     0

 26 28  0     0  0            999 V2000
   -1.1042    0.1625    0.0000 N   0  0  3  0  0  0           0  0  0
    0.2333    0.3000    0.0000 C   0  0  0  0  0  0           0  0  0
   -0.4792    0.7208    0.0000 C   0  0  0  0  0  0           0  0  0
   -0.7708   -0.5875    0.0000 N   0  0  0  0  0  0           0  0  0
   -1.9167    0.3333    0.0000 C   0  0  0  0  0  0           0  0  0
    0.0542   -0.5083    0.0000 C   0  0  0  0  0  0           0  0  0
    3.8208    0.7000    0.0000 N   0  3  0  0  0  0           0  0  0
   -2.4583   -0.2833    0.0000 C   0  0  0  0  0  0           0  0  0
    0.9583    0.7042    0.0000 C   0  0  0  0  0  0           0  0  0
    3.1125    0.2833    0.0000 C   0  0  0  0  0  0           0  0  0
   -0.5583    1.5458    0.0000 O   0  0  0  0  0  0           0  0  0
   -2.1750    1.1208    0.0000 O   0  0  0  0  0  0           0  0  0
    3.8167    1.5250    0.0000 O   0  5  0  0  0  0           0  0  0
    4.6458    0.7000    0.0000 O   0  0  0  0  0  0           0  0  0
   -3.2625   -0.1208    0.0000 C   0  0  0  0  0  0           0  0  0
    1.6792    0.2833    0.0000 C   0  0  0  0  0  0           0  0  0
    2.3958    0.6917    0.0000 C   0  0  0  0  0  0           0  0  0
   -2.1958   -1.0583    0.0000 C   0  0  0  0  0  0           0  0  0
   -3.5333    0.6708    0.0000 O   0  0  0  0  0  0           0  0  0
    0.5917   -1.1333    0.0000 C   0  0  0  0  0  0           0  0  0
    3.1125   -0.5500    0.0000 C   0  0  0  0  0  0           0  0  0
    2.3917   -0.9625    0.0000 C   0  0  0  0  0  0           0  0  0
    1.6792   -0.5542    0.0000 C   0  0  0  0  0  0           0  0  0
   -3.8083   -0.7417    0.0000 C   0  0  0  0  0  0           0  0  0
   -2.7375   -1.6792    0.0000 C   0  0  0  0  0  0           0  0  0
   -3.5417   -1.5167    0.0000 C   0  0  0  0  0  0           0  0  0
  2  3  1  0     0  0
  3  1  1  0     0  0
  4  1  1  0     0  0
  5  1  1  0     0  0
  6  4  2  0     0  0
  7 10  1  0     0  0
  8  5  1  0     0  0
  9  2  2  0     0  0
 10 17  2  0     0  0
 11  3  2  0     0  0
 12  5  2  0     0  0
 13  7  1  0     0  0
 14  7  2  0     0  0
 15  8  2  0     0  0
 16  9  1  0     0  0
 17 16  1  0     0  0
 18  8  1  0     0  0
 19 15  1  0     0  0
 20  6  1  0     0  0
 21 22  2  0     0  0
 22 23  1  0     0  0
 23 16  2  0     0  0
 24 15  1  0     0  0
 25 18  2  0     0  0
 26 25  1  0     0  0
  6  2  1  0     0  0
 26 24  2  0     0  0
 21 10  1  0     0  0
M  CHG  2   7   1  13  -1
M  END
>  <prID>
197

>  <IDDB>
71170

>  <pIC50_HIV_Integrase>
5.585026652

>  <Q>
-0.161707368

>  <Activity_Integrase>
Inactive_Integrase

NA
NA
NA
NA
$$$$

  Accelrys05311914332D 1   1.00000     0.00000     0

 24 26  0     0  0            999 V2000
   -0.7542    0.3250    0.0000 N   0  0  3  0  0  0           0  0  0
    0.5875    0.4625    0.0000 C   0  0  0  0  0  0           0  0  0
   -0.1250    0.8833    0.0000 C   0  0  0  0  0  0           0  0  0
   -0.4208   -0.4250    0.0000 N   0  0  0  0  0  0           0  0  0
   -1.5625    0.4958    0.0000 C   0  0  0  0  0  0           0  0  0
    0.4083   -0.3458    0.0000 C   0  0  0  0  0  0           0  0  0
   -2.1042   -0.1250    0.0000 C   0  0  0  0  0  0           0  0  0
    1.3125    0.8667    0.0000 C   0  0  0  0  0  0           0  0  0
   -0.2000    1.7083    0.0000 O   0  0  0  0  0  0           0  0  0
   -1.8208    1.2833    0.0000 O   0  0  0  0  0  0           0  0  0
   -2.9125    0.0417    0.0000 C   0  0  0  0  0  0           0  0  0
    2.0292    0.4458    0.0000 C   0  0  0  0  0  0           0  0  0
    3.4625   -0.3875    0.0000 C   0  0  0  0  0  0           0  0  0
   -1.8417   -0.9000    0.0000 C   0  0  0  0  0  0           0  0  0
   -3.1833    0.8333    0.0000 O   0  0  0  0  0  0           0  0  0
    2.7458    0.8542    0.0000 C   0  0  0  0  0  0           0  0  0
    2.0333   -0.3917    0.0000 C   0  0  0  0  0  0           0  0  0
    0.9417   -0.9708    0.0000 C   0  0  0  0  0  0           0  0  0
    3.4667    0.4458    0.0000 C   0  0  0  0  0  0           0  0  0
    2.7417   -0.8000    0.0000 C   0  0  0  0  0  0           0  0  0
    4.1792   -0.8000    0.0000 O   0  0  0  0  0  0           0  0  0
   -3.4583   -0.5792    0.0000 C   0  0  0  0  0  0           0  0  0
   -2.3833   -1.5167    0.0000 C   0  0  0  0  0  0           0  0  0
   -3.1875   -1.3542    0.0000 C   0  0  0  0  0  0           0  0  0
  2  3  1  0     0  0
  3  1  1  0     0  0
  4  1  1  0     0  0
  5  1  1  0     0  0
  6  4  2  0     0  0
  7  5  1  0     0  0
  8  2  2  0     0  0
  9  3  2  0     0  0
 10  5  2  0     0  0
 11  7  2  0     0  0
 12  8  1  0     0  0
 13 19  1  0     0  0
 14  7  1  0     0  0
 15 11  1  0     0  0
 16 12  1  0     0  0
 17 12  2  0     0  0
 18  6  1  0     0  0
 19 16  2  0     0  0
 20 17  1  0     0  0
 21 13  1  0     0  0
 22 11  1  0     0  0
 23 14  2  0     0  0
 24 23  1  0     0  0
  6  2  1  0     0  0
 24 22  2  0     0  0
 13 20  2  0     0  0
M  END
>  <prID>
198

>  <IDDB>
71171

>  <pIC50_HIV_Integrase>
6.045757491

>  <Q>
-0.812066508

>  <Activity_Integrase>
Active_Integrase

NA
NA
NA
NA
$$$$

  Accelrys05311914332D 1   1.00000     0.00000     0

 24 26  0     0  0            999 V2000
   -0.7542    0.2583    0.0000 N   0  0  3  0  0  0           0  0  0
    0.5875    0.3917    0.0000 C   0  0  0  0  0  0           0  0  0
   -0.1250    0.8125    0.0000 C   0  0  0  0  0  0           0  0  0
   -0.4208   -0.5000    0.0000 N   0  0  0  0  0  0           0  0  0
   -1.5625    0.4250    0.0000 C   0  0  0  0  0  0           0  0  0
    0.4083   -0.4167    0.0000 C   0  0  0  0  0  0           0  0  0
   -2.1042   -0.1958    0.0000 C   0  0  0  0  0  0           0  0  0
    1.3125    0.8000    0.0000 C   0  0  0  0  0  0           0  0  0
   -0.2000    1.6417    0.0000 O   0  0  0  0  0  0           0  0  0
   -1.8208    1.2167    0.0000 O   0  0  0  0  0  0           0  0  0
   -2.9125   -0.0292    0.0000 C   0  0  0  0  0  0           0  0  0
    2.0292    0.3792    0.0000 C   0  0  0  0  0  0           0  0  0
    2.7458    0.7833    0.0000 C   0  0  0  0  0  0           0  0  0
   -1.8417   -0.9667    0.0000 C   0  0  0  0  0  0           0  0  0
    3.4667    0.3792    0.0000 C   0  0  0  0  0  0           0  0  0
   -3.1833    0.7625    0.0000 O   0  0  0  0  0  0           0  0  0
    0.9417   -1.0375    0.0000 C   0  0  0  0  0  0           0  0  0
    4.1792    0.7917    0.0000 O   0  0  0  0  0  0           0  0  0
    2.7417   -0.8708    0.0000 C   0  0  0  0  0  0           0  0  0
    2.0333   -0.4583    0.0000 C   0  0  0  0  0  0           0  0  0
   -3.4583   -0.6500    0.0000 C   0  0  0  0  0  0           0  0  0
    3.4625   -0.4583    0.0000 C   0  0  0  0  0  0           0  0  0
   -2.3833   -1.5875    0.0000 C   0  0  0  0  0  0           0  0  0
   -3.1875   -1.4208    0.0000 C   0  0  0  0  0  0           0  0  0
  2  3  1  0     0  0
  3  1  1  0     0  0
  4  1  1  0     0  0
  5  1  1  0     0  0
  6  4  2  0     0  0
  7  5  1  0     0  0
  8  2  2  0     0  0
  9  3  2  0     0  0
 10  5  2  0     0  0
 11  7  2  0     0  0
 12  8  1  0     0  0
 13 12  1  0     0  0
 14  7  1  0     0  0
 15 13  2  0     0  0
 16 11  1  0     0  0
 17  6  1  0     0  0
 18 15  1  0     0  0
 19 20  1  0     0  0
 20 12  2  0     0  0
 21 11  1  0     0  0
 22 19  2  0     0  0
 23 14  2  0     0  0
 24 23  1  0     0  0
  6  2  1  0     0  0
 24 21  2  0     0  0
 22 15  1  0     0  0
M  END
>  <prID>
199

>  <IDDB>
71172

>  <pIC50_HIV_Integrase>
5.13076828

>  <Q>
-0.810403272

>  <Activity_Integrase>
Inactive_Integrase

NA
NA
NA
NA
$$$$

  Accelrys05311914332D 1   1.00000     0.00000     0

 26 28  0     0  0            999 V2000
   -1.0833    0.2208    0.0000 N   0  0  3  0  0  0           0  0  0
    0.2542    0.3583    0.0000 C   0  0  0  0  0  0           0  0  0
   -0.4583    0.7792    0.0000 C   0  0  0  0  0  0           0  0  0
   -0.7500   -0.5333    0.0000 N   0  0  0  0  0  0           0  0  0
   -1.8958    0.3917    0.0000 C   0  0  0  0  0  0           0  0  0
    0.0750   -0.4500    0.0000 C   0  0  0  0  0  0           0  0  0
   -2.4417   -0.2292    0.0000 C   0  0  0  0  0  0           0  0  0
    0.9792    0.7625    0.0000 C   0  0  0  0  0  0           0  0  0
   -0.5375    1.6042    0.0000 O   0  0  0  0  0  0           0  0  0
    3.1333    0.3417    0.0000 C   0  0  0  0  0  0           0  0  0
   -2.1542    1.1792    0.0000 O   0  0  0  0  0  0           0  0  0
   -3.2417   -0.0625    0.0000 C   0  0  0  0  0  0           0  0  0
    1.7000    0.3417    0.0000 C   0  0  0  0  0  0           0  0  0
    3.1333   -0.4958    0.0000 C   0  0  0  0  0  0           0  0  0
    2.4125    0.7500    0.0000 C   0  0  0  0  0  0           0  0  0
    2.4125   -0.9083    0.0000 C   0  0  0  0  0  0           0  0  0
    1.7000   -0.4958    0.0000 C   0  0  0  0  0  0           0  0  0
   -2.1750   -1.0000    0.0000 C   0  0  0  0  0  0           0  0  0
    3.8417    0.7583    0.0000 O   0  0  0  0  0  0           0  0  0
   -3.5167    0.7292    0.0000 O   0  0  0  0  0  0           0  0  0
    3.9250   -0.7042    0.0000 O   0  0  0  0  0  0           0  0  0
    0.6083   -1.0750    0.0000 C   0  0  0  0  0  0           0  0  0
   -3.7875   -0.6833    0.0000 C   0  0  0  0  0  0           0  0  0
    4.0583    1.5583    0.0000 C   0  0  0  0  0  0           0  0  0
   -2.7208   -1.6208    0.0000 C   0  0  0  0  0  0           0  0  0
   -3.5208   -1.4583    0.0000 C   0  0  0  0  0  0           0  0  0
  2  3  1  0     0  0
  3  1  1  0     0  0
  4  1  1  0     0  0
  5  1  1  0     0  0
  6  4  2  0     0  0
  7  5  1  0     0  0
  8  2  2  0     0  0
  9  3  2  0     0  0
 10 15  2  0     0  0
 11  5  2  0     0  0
 12  7  2  0     0  0
 13  8  1  0     0  0
 14 16  2  0     0  0
 15 13  1  0     0  0
 16 17  1  0     0  0
 17 13  2  0     0  0
 18  7  1  0     0  0
 19 10  1  0     0  0
 20 12  1  0     0  0
 21 14  1  0     0  0
 22  6  1  0     0  0
 23 12  1  0     0  0
 24 19  1  0     0  0
 25 18  2  0     0  0
 26 25  1  0     0  0
  6  2  1  0     0  0
 26 23  2  0     0  0
 14 10  1  0     0  0
M  END
>  <prID>
200

>  <IDDB>
71173

>  <pIC50_HIV_Integrase>
6.22184875

>  <Q>
-1.04258975

>  <Activity_Integrase>
Active_Integrase

NA
NA
NA
NA
$$$$

  Accelrys05311914332D 1   1.00000     0.00000     0

 27 29  0     0  0            999 V2000
   -1.2625    0.3167    0.0000 N   0  0  3  0  0  0           0  0  0
    0.0792    0.4500    0.0000 C   0  0  0  0  0  0           0  0  0
   -0.6333    0.8708    0.0000 C   0  0  0  0  0  0           0  0  0
   -0.9250   -0.4375    0.0000 N   0  0  0  0  0  0           0  0  0
   -2.0708    0.4833    0.0000 C   0  0  0  0  0  0           0  0  0
   -0.1000   -0.3583    0.0000 C   0  0  0  0  0  0           0  0  0
   -2.6125   -0.1375    0.0000 C   0  0  0  0  0  0           0  0  0
    0.8042    0.8542    0.0000 C   0  0  0  0  0  0           0  0  0
   -0.7125    1.7000    0.0000 O   0  0  0  0  0  0           0  0  0
    2.9583    0.4333    0.0000 C   0  0  0  0  0  0           0  0  0
   -2.3292    1.2708    0.0000 O   0  0  0  0  0  0           0  0  0
   -3.4208    0.0292    0.0000 C   0  0  0  0  0  0           0  0  0
    1.5208    0.4333    0.0000 C   0  0  0  0  0  0           0  0  0
    2.2375    0.8417    0.0000 C   0  0  0  0  0  0           0  0  0
    2.9583   -0.4000    0.0000 C   0  0  0  0  0  0           0  0  0
    2.2375   -0.8167    0.0000 C   0  0  0  0  0  0           0  0  0
    1.5250   -0.4000    0.0000 C   0  0  0  0  0  0           0  0  0
   -2.3500   -0.9083    0.0000 C   0  0  0  0  0  0           0  0  0
    3.6667    0.8500    0.0000 O   0  0  0  0  0  0           0  0  0
   -3.6875    0.8208    0.0000 O   0  0  0  0  0  0           0  0  0
    0.4375   -0.9792    0.0000 C   0  0  0  0  0  0           0  0  0
    3.7500   -0.6125    0.0000 O   0  0  0  0  0  0           0  0  0
   -3.9625   -0.5917    0.0000 C   0  0  0  0  0  0           0  0  0
    4.4625    0.6417    0.0000 C   0  0  0  0  0  0           0  0  0
    3.9625   -1.4083    0.0000 C   0  0  0  0  0  0           0  0  0
   -2.8917   -1.5292    0.0000 C   0  0  0  0  0  0           0  0  0
   -3.6958   -1.3625    0.0000 C   0  0  0  0  0  0           0  0  0
  2  3  1  0     0  0
  3  1  1  0     0  0
  4  1  1  0     0  0
  5  1  1  0     0  0
  6  4  2  0     0  0
  7  5  1  0     0  0
  8  2  2  0     0  0
  9  3  2  0     0  0
 10 14  2  0     0  0
 11  5  2  0     0  0
 12  7  2  0     0  0
 13  8  1  0     0  0
 14 13  1  0     0  0
 15 16  2  0     0  0
 16 17  1  0     0  0
 17 13  2  0     0  0
 18  7  1  0     0  0
 19 10  1  0     0  0
 20 12  1  0     0  0
 21  6  1  0     0  0
 22 15  1  0     0  0
 23 12  1  0     0  0
 24 19  1  0     0  0
 25 22  1  0     0  0
 26 18  2  0     0  0
 27 26  1  0     0  0
  6  2  1  0     0  0
 27 23  2  0     0  0
 15 10  1  0     0  0
M  END
>  <prID>
201

>  <IDDB>
71174

>  <pIC50_HIV_Integrase>
6.301029996

>  <Q>
-0.458648372

>  <Activity_Integrase>
Active_Integrase

NA
NA
NA
NA
$$$$

  Accelrys05311914332D 1   1.00000     0.00000     0

 29 31  0     0  0            999 V2000
   -1.3958    0.4500    0.0000 N   0  0  3  0  0  0           0  0  0
   -0.0542    0.5833    0.0000 C   0  0  0  0  0  0           0  0  0
   -0.7667    1.0000    0.0000 C   0  0  0  0  0  0           0  0  0
   -1.0625   -0.3042    0.0000 N   0  0  0  0  0  0           0  0  0
   -2.2000    0.6167    0.0000 C   0  0  0  0  0  0           0  0  0
   -0.2333   -0.2250    0.0000 C   0  0  0  0  0  0           0  0  0
   -2.7458    0.0000    0.0000 C   0  0  0  0  0  0           0  0  0
    0.6708    0.9875    0.0000 C   0  0  0  0  0  0           0  0  0
    2.8208   -0.2667    0.0000 C   0  0  0  0  0  0           0  0  0
    2.8250    0.5667    0.0000 C   0  0  0  0  0  0           0  0  0
    2.1000   -0.6792    0.0000 C   0  0  0  0  0  0           0  0  0
    1.3875    0.5667    0.0000 C   0  0  0  0  0  0           0  0  0
   -0.8417    1.8292    0.0000 O   0  0  0  0  0  0           0  0  0
   -2.4625    1.4042    0.0000 O   0  0  0  0  0  0           0  0  0
    2.1042    0.9750    0.0000 C   0  0  0  0  0  0           0  0  0
    1.3917   -0.2667    0.0000 C   0  0  0  0  0  0           0  0  0
   -3.5542    0.1625    0.0000 C   0  0  0  0  0  0           0  0  0
    3.6167   -0.4792    0.0000 O   0  0  0  0  0  0           0  0  0
    3.5333    0.9833    0.0000 O   0  0  0  0  0  0           0  0  0
    2.1000   -1.5042    0.0000 O   0  0  0  0  0  0           0  0  0
   -2.4833   -0.7750    0.0000 C   0  0  0  0  0  0           0  0  0
   -3.8208    0.9542    0.0000 O   0  0  0  0  0  0           0  0  0
    0.3000   -0.8500    0.0000 C   0  0  0  0  0  0           0  0  0
   -4.1000   -0.4583    0.0000 C   0  0  0  0  0  0           0  0  0
    3.8292   -1.2750    0.0000 C   0  0  0  0  0  0           0  0  0
    4.3292    0.7708    0.0000 C   0  0  0  0  0  0           0  0  0
    1.5083   -2.0875    0.0000 C   0  0  0  0  0  0           0  0  0
   -3.0250   -1.3958    0.0000 C   0  0  0  0  0  0           0  0  0
   -3.8292   -1.2333    0.0000 C   0  0  0  0  0  0           0  0  0
  2  3  1  0     0  0
  3  1  1  0     0  0
  4  1  1  0     0  0
  5  1  1  0     0  0
  6  4  2  0     0  0
  7  5  1  0     0  0
  8  2  2  0     0  0
  9 10  1  0     0  0
 10 15  2  0     0  0
 11 16  1  0     0  0
 12  8  1  0     0  0
 13  3  2  0     0  0
 14  5  2  0     0  0
 15 12  1  0     0  0
 16 12  2  0     0  0
 17  7  2  0     0  0
 18  9  1  0     0  0
 19 10  1  0     0  0
 20 11  1  0     0  0
 21  7  1  0     0  0
 22 17  1  0     0  0
 23  6  1  0     0  0
 24 17  1  0     0  0
 25 18  1  0     0  0
 26 19  1  0     0  0
 27 20  1  0     0  0
 28 21  2  0     0  0
 29 28  1  0     0  0
  6  2  1  0     0  0
 29 24  2  0     0  0
  9 11  2  0     0  0
M  END
>  <prID>
202

>  <IDDB>
71175

>  <pIC50_HIV_Integrase>
5.698970004

>  <Q>
-0.691905787

>  <Activity_Integrase>
Inactive_Integrase

NA
NA
NA
NA
$$$$

  Accelrys05311914332D 1   1.00000     0.00000     0

 22 24  0     0  0            999 V2000
   -0.2958   -0.1875    0.0000 N   0  0  3  0  0  0           0  0  0
    0.8875   -0.7958    0.0000 C   0  0  0  0  0  0           0  0  0
    0.5167   -0.0625    0.0000 C   0  0  0  0  0  0           0  0  0
   -0.4333   -1.0000    0.0000 N   0  0  0  0  0  0           0  0  0
   -0.8042    0.4625    0.0000 C   0  0  0  0  0  0           0  0  0
    0.3042   -1.3792    0.0000 C   0  0  0  0  0  0           0  0  0
   -1.6250    0.3417    0.0000 C   0  0  0  0  0  0           0  0  0
    1.7083   -0.9250    0.0000 C   0  0  0  0  0  0           0  0  0
    2.2333   -0.2792    0.0000 C   0  0  0  0  0  0           0  0  0
    0.9042    0.6708    0.0000 O   0  0  0  0  0  0           0  0  0
   -0.5042    1.2208    0.0000 O   0  0  0  0  0  0           0  0  0
   -2.1208    0.9917    0.0000 C   0  0  0  0  0  0           0  0  0
    2.1125    0.5417    0.0000 O   0  0  0  0  0  0           0  0  0
    3.0417   -0.4125    0.0000 C   0  0  0  0  0  0           0  0  0
    2.8458    0.9042    0.0000 C   0  0  0  0  0  0           0  0  0
    3.4167    0.3208    0.0000 C   0  0  0  0  0  0           0  0  0
   -1.9333   -0.4167    0.0000 C   0  0  0  0  0  0           0  0  0
   -1.7958    1.7625    0.0000 O   0  0  0  0  0  0           0  0  0
    0.4333   -2.1958    0.0000 C   0  0  0  0  0  0           0  0  0
   -2.9417    0.8875    0.0000 C   0  0  0  0  0  0           0  0  0
   -2.7500   -0.5292    0.0000 C   0  0  0  0  0  0           0  0  0
   -3.2542    0.1208    0.0000 C   0  0  0  0  0  0           0  0  0
  2  3  1  0     0  0
  3  1  1  0     0  0
  4  1  1  0     0  0
  5  1  1  0     0  0
  6  4  2  0     0  0
  7  5  1  0     0  0
  8  2  2  0     0  0
  9  8  1  0     0  0
 10  3  2  0     0  0
 11  5  2  0     0  0
 12  7  2  0     0  0
 13  9  1  0     0  0
 14  9  2  0     0  0
 15 13  1  0     0  0
 16 14  1  0     0  0
 17  7  1  0     0  0
 18 12  1  0     0  0
 19  6  1  0     0  0
 20 12  1  0     0  0
 21 17  2  0     0  0
 22 21  1  0     0  0
  6  2  1  0     0  0
 22 20  2  0     0  0
 15 16  2  0     0  0
M  END
>  <prID>
203

>  <IDDB>
71176

>  <pIC50_HIV_Integrase>
5.698970004

>  <Q>
-0.550499429

>  <Activity_Integrase>
Inactive_Integrase

NA
NA
NA
NA
$$$$

  Accelrys05311914332D 1   1.00000     0.00000     0

 39 42  0     0  0            999 V2000
    5.8414   -3.6608    0.0000 C   0  0  2  0  0  0           0  0  0
    6.1033   -2.4912    0.0000 C   0  0  2  0  0  0           0  0  0
    4.6719   -3.7764    0.0000 C   0  0  0  0  0  0           0  0  0
    4.1967   -2.6802    0.0000 C   0  0  0  0  0  0           0  0  0
    5.0921   -1.8821    0.0000 O   0  0  0  0  0  0           0  0  0
    6.9438   -4.0993    0.0000 C   0  0  0  0  0  0           0  0  0
    7.1814   -2.0283    0.0000 C   0  0  0  0  0  0           0  0  0
    7.3580   -7.4372    0.0000 C   0  0  0  0  0  0           0  0  0
    7.1204   -8.4545    0.0000 C   0  0  2  0  0  0           0  0  0
    3.9593   -4.7266    0.0000 C   0  0  0  0  0  0           0  0  0
    4.1236   -6.0606    0.0000 C   0  0  0  0  0  0           0  0  0
    5.1105   -8.1621    0.0000 C   0  0  0  0  0  0           0  0  0
    7.3337   -0.8467    0.0000 C   0  0  0  0  0  0           0  0  0
    5.2079   -6.4322    0.0000 C   0  0  0  0  0  0           0  0  0
    6.0240   -8.8991    0.0000 O   0  0  0  0  0  0           0  0  0
    8.4057   -0.3776    0.0000 C   0  0  0  0  0  0           0  0  0
    3.0334   -2.5400    0.0000 C   0  0  0  0  0  0           0  0  0
   11.1527   -9.4534    0.0000 C   0  0  0  0  0  0           0  0  0
    8.0341   -9.2036    0.0000 C   0  0  0  0  0  0           0  0  0
    9.3559   -1.0964    0.0000 C   0  0  0  0  0  0           0  0  0
   11.4696   -8.2960    0.0000 C   0  0  0  0  0  0           0  0  0
   10.0137   -9.7396    0.0000 C   0  0  0  0  0  0           0  0  0
    9.1732   -8.8931    0.0000 C   0  0  0  0  0  0           0  0  0
    8.1254   -2.7471    0.0000 C   0  0  0  0  0  0           0  0  0
    7.9427   -3.7887    0.0000 O   0  0  0  0  0  0           0  0  0
    6.4810   -6.5722    0.0000 O   0  0  0  0  0  0           0  0  0
    4.0080   -8.5884    0.0000 O   0  0  0  0  0  0           0  0  0
    2.7898   -4.5804    0.0000 C   0  0  0  0  0  0           0  0  0
    2.3207   -3.4902    0.0000 C   0  0  0  0  0  0           0  0  0
    9.2097   -2.2719    0.0000 C   0  0  0  0  0  0           0  0  0
   10.6289   -7.4495    0.0000 C   0  0  0  0  0  0           0  0  0
    6.9438   -5.2506    0.0000 O   0  0  0  0  0  0           0  0  0
    8.3509   -6.8890    0.0000 O   0  0  0  0  0  0           0  0  0
    9.4838   -7.7600    0.0000 C   0  0  0  0  0  0           0  0  0
    8.5336    0.8040    0.0000 O   0  0  0  0  0  0           0  0  0
   11.9690  -10.2878    0.0000 O   0  0  0  0  0  0           0  0  0
    2.5582   -1.4376    0.0000 O   0  0  0  0  0  0           0  0  0
   10.4401   -0.6274    0.0000 O   0  0  0  0  0  0           0  0  0
   12.6085   -8.0037    0.0000 O   0  0  0  0  0  0           0  0  0
  2  1  1  0     0  0
  3  1  1  0     0  0
  4  3  1  0     0  0
  5  2  1  0     0  0
  1  6  1  1     0  0
  2  7  1  6     0  0
  9  8  1  1     0  0
  9 15  1  0     0  0
 10  3  2  0     0  0
 11 10  1  0     0  0
 12 14  1  0     0  0
 13  7  1  0     0  0
 14 11  2  0     0  0
 15 12  1  0     0  0
 16 13  2  0     0  0
 17  4  2  0     0  0
 18 22  1  0     0  0
 19  9  1  0     0  0
 20 30  2  0     0  0
 21 31  1  0     0  0
 22 23  2  0     0  0
 23 19  1  0     0  0
 24  7  2  0     0  0
 25  6  2  0     0  0
 26  8  2  0     0  0
 27 12  2  0     0  0
 28 10  1  0     0  0
 29 28  2  0     0  0
 30 24  1  0     0  0
 31 34  2  0     0  0
 32  6  1  0     0  0
 33  8  1  0     0  0
 34 23  1  0     0  0
 35 16  1  0     0  0
 36 18  1  0     0  0
 37 17  1  0     0  0
 38 20  1  0     0  0
 39 21  1  0     0  0
  5  4  1  0     0  0
 29 17  1  0     0  0
 20 16  1  0     0  0
 21 18  2  0     0  0
M  END
>  <prID>
204

>  <IDDB>
71478

>  <pIC50_HIV_Integrase>
6.318758763

>  <Q>
-5.458106598

>  <Activity_Integrase>
Active_Integrase

NA
NA
NA
NA
$$$$

  Accelrys05311914332D 1   1.00000     0.00000     0

 28 29  0     0  0            999 V2000
   -3.0000   -0.1708    0.0000 C   0  0  0  0  0  0           0  0  0
    2.9542   -0.0792    0.0000 C   0  0  0  0  0  0           0  0  0
    2.2292   -0.5500    0.0000 C   0  0  0  0  0  0           0  0  0
   -2.3042   -0.5792    0.0000 C   0  0  0  0  0  0           0  0  0
   -5.4042   -0.1583    0.0000 C   0  0  0  0  0  0           0  0  0
    5.4583   -0.1500    0.0000 C   0  0  0  0  0  0           0  0  0
    3.5542   -0.4458    0.0000 C   0  0  0  0  0  0           0  0  0
   -3.6250   -0.5000    0.0000 C   0  0  0  0  0  0           0  0  0
   -5.4208    0.5625    0.0000 C   0  0  0  0  0  0           0  0  0
    5.4875    0.5625    0.0000 C   0  0  0  0  0  0           0  0  0
   -4.8000   -0.4792    0.0000 C   0  0  0  0  0  0           0  0  0
    4.8250   -0.4958    0.0000 C   0  0  0  0  0  0           0  0  0
   -2.3042   -1.5375    0.0000 O   0  0  0  0  0  0           0  0  0
    2.2333   -1.3375    0.0000 O   0  0  0  0  0  0           0  0  0
    4.2125   -0.1458    0.0000 C   0  0  0  0  0  0           0  0  0
   -4.1708   -0.1375    0.0000 C   0  0  0  0  0  0           0  0  0
    4.8792    0.9583    0.0000 C   0  0  0  0  0  0           0  0  0
   -4.8417    0.9292    0.0000 C   0  0  0  0  0  0           0  0  0
   -6.0625   -0.4417    0.0000 O   0  0  0  0  0  0           0  0  0
    6.1792   -0.5333    0.0000 O   0  0  0  0  0  0           0  0  0
   -4.1833    0.5875    0.0000 C   0  0  0  0  0  0           0  0  0
    4.2375    0.6042    0.0000 C   0  0  0  0  0  0           0  0  0
    1.4750    0.0125    0.0000 O   0  0  0  0  0  0           0  0  0
   -1.5208   -0.1000    0.0000 O   0  0  0  0  0  0           0  0  0
   -6.0583    0.8500    0.0000 O   0  0  0  0  0  0           0  0  0
    6.2083    0.9417    0.0000 O   0  0  0  0  0  0           0  0  0
    0.4750    0.9458    0.0000 C   0  0  0  0  0  0           0  0  0
   -0.7542    0.9500    0.0000 C   0  0  0  0  0  0           0  0  0
  2  3  1  0     0  0
  3 23  1  0     0  0
  4  1  1  0     0  0
  5 11  2  0     0  0
  6 12  1  0     0  0
  7  2  2  0     0  0
  8  1  2  0     0  0
  9 18  2  0     0  0
 10 17  1  0     0  0
 11 16  1  0     0  0
 12 15  2  0     0  0
 13  4  2  0     0  0
 14  3  2  0     0  0
 15  7  1  0     0  0
 16  8  1  0     0  0
 17 22  2  0     0  0
 18 21  1  0     0  0
 19  5  1  0     0  0
 20  6  1  0     0  0
 21 16  2  0     0  0
 22 15  1  0     0  0
 23 27  1  0     0  0
 24  4  1  0     0  0
 25  9  1  0     0  0
 26 10  1  0     0  0
 27 28  1  0     0  0
 28 24  1  0     0  0
  9  5  1  0     0  0
 10  6  2  0     0  0
M  END
>  <prID>
205

>  <IDDB>
72105

>  <pIC50_HIV_Integrase>
6.397940009

>  <Q>
-2.396684244

>  <Activity_Integrase>
Active_Integrase

NA
NA
NA
NA
$$$$

  Accelrys05311914332D 1   1.00000     0.00000     0

 29 30  0     0  0            999 V2000
    2.9917    0.0083    0.0000 C   0  0  0  0  0  0           0  0  0
   -3.0542   -0.0542    0.0000 C   0  0  0  0  0  0           0  0  0
   -2.3708   -0.4583    0.0000 C   0  0  0  0  0  0           0  0  0
    2.2792   -0.4542    0.0000 C   0  0  0  0  0  0           0  0  0
    5.4625   -0.0583    0.0000 C   0  0  0  0  0  0           0  0  0
   -5.4208   -0.0417    0.0000 C   0  0  0  0  0  0           0  0  0
   -3.6750   -0.3750    0.0000 C   0  0  0  0  0  0           0  0  0
    3.5833   -0.3542    0.0000 C   0  0  0  0  0  0           0  0  0
    5.4875    0.6417    0.0000 C   0  0  0  0  0  0           0  0  0
   -5.4333    0.6708    0.0000 C   0  0  0  0  0  0           0  0  0
    4.8375   -0.4000    0.0000 C   0  0  0  0  0  0           0  0  0
   -4.8292   -0.3583    0.0000 C   0  0  0  0  0  0           0  0  0
    2.2792   -1.2375    0.0000 O   0  0  0  0  0  0           0  0  0
   -2.3708   -1.4042    0.0000 O   0  0  0  0  0  0           0  0  0
   -4.2083   -0.0167    0.0000 C   0  0  0  0  0  0           0  0  0
    4.2292   -0.0583    0.0000 C   0  0  0  0  0  0           0  0  0
   -4.8667    1.0250    0.0000 C   0  0  0  0  0  0           0  0  0
    4.8875    1.0292    0.0000 C   0  0  0  0  0  0           0  0  0
    6.1708   -0.4375    0.0000 O   0  0  0  0  0  0           0  0  0
   -6.0750   -0.3250    0.0000 O   0  0  0  0  0  0           0  0  0
    4.2583    0.6833    0.0000 C   0  0  0  0  0  0           0  0  0
   -4.2208    0.6917    0.0000 C   0  0  0  0  0  0           0  0  0
   -1.6000    0.0167    0.0000 O   0  0  0  0  0  0           0  0  0
    1.5375    0.1000    0.0000 O   0  0  0  0  0  0           0  0  0
    6.2000    1.0125    0.0000 O   0  0  0  0  0  0           0  0  0
   -6.0625    0.9500    0.0000 O   0  0  0  0  0  0           0  0  0
   -0.0333    0.0583    0.0000 C   0  0  0  0  0  0           0  0  0
   -0.8042   -0.4167    0.0000 C   0  0  0  0  0  0           0  0  0
    0.7625   -0.3750    0.0000 C   0  0  0  0  0  0           0  0  0
  2  3  1  0     0  0
  3 23  1  0     0  0
  4  1  1  0     0  0
  5 11  1  0     0  0
  6 12  2  0     0  0
  7  2  2  0     0  0
  8  1  2  0     0  0
  9 18  1  0     0  0
 10 17  2  0     0  0
 11 16  2  0     0  0
 12 15  1  0     0  0
 13  4  2  0     0  0
 14  3  2  0     0  0
 15  7  1  0     0  0
 16  8  1  0     0  0
 17 22  1  0     0  0
 18 21  2  0     0  0
 19  5  1  0     0  0
 20  6  1  0     0  0
 21 16  1  0     0  0
 22 15  2  0     0  0
 23 28  1  0     0  0
 24  4  1  0     0  0
 25  9  1  0     0  0
 26 10  1  0     0  0
 27 29  1  0     0  0
 28 27  1  0     0  0
 29 24  1  0     0  0
  9  5  2  0     0  0
 10  6  1  0     0  0
M  END
>  <prID>
206

>  <IDDB>
72107

>  <pIC50_HIV_Integrase>
5.124938737

>  <Q>
-2.645549516

>  <Activity_Integrase>
Inactive_Integrase

NA
NA
NA
NA
$$$$

  Accelrys05311914332D 1   1.00000     0.00000     0

 48 56  0     0  0            999 V2000
   13.8514   -3.8208    0.0000 C   0  0  0  0  0  0           0  0  0
   13.8514   -4.6273    0.0000 C   0  0  0  0  0  0           0  0  0
   13.1586   -5.0277    0.0000 C   0  0  0  0  0  0           0  0  0
   13.1604   -3.4164    0.0000 C   0  0  0  0  0  0           0  0  0
   12.4617   -3.8172    0.0000 C   0  0  0  0  0  0           0  0  0
   12.4617   -4.6232    0.0000 C   0  0  0  0  0  0           0  0  0
   11.7679   -3.4113    0.0000 C   0  0  0  0  0  0           0  0  0
   11.0687   -3.8102    0.0000 C   0  0  0  0  0  0           0  0  0
    9.6675   -4.6103    0.0000 C   0  0  0  0  0  0           0  0  0
    9.6675   -3.7984    0.0000 C   0  0  0  0  0  0           0  0  0
   10.3781   -3.4006    0.0000 C   0  0  0  0  0  0           0  0  0
   10.3835   -5.1080    0.0000 C   0  0  0  0  0  0           0  0  0
   11.0687   -4.7040    0.0000 C   0  0  0  0  0  0           0  0  0
   11.7613   -5.0262    0.0000 N   0  0  3  0  0  0           0  0  0
   11.5663   -5.9178    0.0000 N   0  0  0  0  0  0           0  0  0
   10.5618   -5.9178    0.0000 N   0  0  0  0  0  0           0  0  0
   10.3781   -2.5958    0.0000 N   0  0  0  0  0  0           0  0  0
    9.6875   -2.1917    0.0000 C   0  0  0  0  0  0           0  0  0
    8.9917   -2.5917    0.0000 C   0  0  0  0  0  0           0  0  0
    8.2958   -2.1875    0.0000 C   0  0  0  0  0  0           0  0  0
   11.7679   -2.6042    0.0000 O   0  0  0  0  0  0           0  0  0
   -0.6056   -3.8500    0.0000 C   0  0  0  0  0  0           0  0  0
   -0.6056   -4.6565    0.0000 C   0  0  0  0  0  0           0  0  0
    0.0872   -5.0610    0.0000 C   0  0  0  0  0  0           0  0  0
    0.0854   -3.4455    0.0000 C   0  0  0  0  0  0           0  0  0
    0.7841   -3.8463    0.0000 C   0  0  0  0  0  0           0  0  0
    0.7841   -4.6523    0.0000 C   0  0  0  0  0  0           0  0  0
    1.4779   -3.4405    0.0000 C   0  0  0  0  0  0           0  0  0
    2.1771   -3.8394    0.0000 C   0  0  0  0  0  0           0  0  0
    3.5784   -4.6394    0.0000 C   0  0  0  0  0  0           0  0  0
    3.5784   -3.8275    0.0000 C   0  0  0  0  0  0           0  0  0
    2.8677   -3.4297    0.0000 C   0  0  0  0  0  0           0  0  0
    2.8624   -5.1372    0.0000 C   0  0  0  0  0  0           0  0  0
    2.1771   -4.7331    0.0000 C   0  0  0  0  0  0           0  0  0
    1.4845   -5.0554    0.0000 N   0  0  3  0  0  0           0  0  0
    1.6795   -5.9470    0.0000 N   0  0  0  0  0  0           0  0  0
    2.6840   -5.9470    0.0000 N   0  0  0  0  0  0           0  0  0
    2.8677   -2.6250    0.0000 N   0  0  0  0  0  0           0  0  0
    3.5583   -2.2208    0.0000 C   0  0  0  0  0  0           0  0  0
    4.2542   -2.6208    0.0000 C   0  0  0  0  0  0           0  0  0
    4.9500   -2.2167    0.0000 C   0  0  0  0  0  0           0  0  0
    1.4779   -2.6333    0.0000 O   0  0  0  0  0  0           0  0  0
    7.0850   -1.7527    0.0000 C   0  0  0  0  0  0           0  0  0
    6.2600   -1.7527    0.0000 C   0  0  0  0  0  0           0  0  0
    5.8542   -2.4691    0.0000 N   0  0  3  0  0  0           0  0  0
    6.2650   -3.1797    0.0000 C   0  0  0  0  0  0           0  0  0
    7.0900   -3.1797    0.0000 C   0  0  0  0  0  0           0  0  0
    7.5042   -2.4633    0.0000 N   0  0  3  0  0  0           0  0  0
 22 23  2  0     0  0
 23 24  1  0     0  0
 24 27  2  0     0  0
 10 11  2  0     0  0
 26 25  2  0     0  0
 25 22  1  0     0  0
 11  8  1  0     0  0
 12 13  1  0     0  0
 26 27  1  0     0  0
 27 35  1  0     0  0
  2  3  1  0     0  0
 29 28  1  0     0  0
 28 26  1  0     0  0
  5  6  1  0     0  0
 29 34  2  0     0  0
  6 14  1  0     0  0
 33 30  2  0     0  0
  3  6  2  0     0  0
 30 31  1  0     0  0
  8  7  1  0     0  0
 31 32  2  0     0  0
 32 29  1  0     0  0
 33 34  1  0     0  0
 14 15  1  0     0  0
 15 16  2  0     0  0
 16 12  1  0     0  0
 13 14  1  0     0  0
  7  5  1  0     0  0
 35 36  1  0     0  0
 36 37  2  0     0  0
 37 33  1  0     0  0
 34 35  1  0     0  0
 11 17  1  0     0  0
 32 38  1  0     0  0
  1  2  2  0     0  0
 38 39  1  0     0  0
 17 18  1  0     0  0
 39 40  1  0     0  0
  8 13  2  0     0  0
 40 41  1  0     0  0
 18 19  1  0     0  0
 28 42  2  0     0  0
 43 44  1  0     0  0
  5  4  2  0     0  0
 19 20  1  0     0  0
 12  9  2  0     0  0
  7 21  2  0     0  0
  4  1  1  0     0  0
  9 10  1  0     0  0
 43 48  1  0     0  0
 44 45  1  0     0  0
 45 46  1  0     0  0
 46 47  1  0     0  0
 47 48  1  0     0  0
 41 45  1  0     0  0
 20 48  1  0     0  0
M  END
>  <prID>
207

>  <IDDB>
72389

>  <pIC50_HIV_Integrase>
8

>  <Q>
-2.72632402

>  <Activity_Integrase>
Active_Integrase

NA
NA
NA
NA
$$$$

  Accelrys05311914332D 1   1.00000     0.00000     0

 25 28  0     0  0            999 V2000
    3.5166   -1.1542    0.0000 C   0  0  0  0  0  0           0  0  0
    2.8042   -0.7374    0.0000 C   0  0  0  0  0  0           0  0  0
    2.0916   -1.1458    0.0000 C   0  0  0  0  0  0           0  0  0
    3.5125   -1.9708    0.0000 O   0  0  0  0  0  0           0  0  0
    1.3833   -0.7416    0.0000 C   0  0  0  0  0  0           0  0  0
    0.6791   -1.1500    0.0000 C   0  0  0  0  0  0           0  0  0
   -0.0292   -0.7416    0.0000 C   0  0  0  0  0  0           0  0  0
    2.7751    0.1041    0.0000 C   0  0  0  0  0  0           0  0  0
    2.0958    0.4959    0.0000 C   0  0  0  0  0  0           0  0  0
    1.3833    0.0792    0.0000 C   0  0  0  0  0  0           0  0  0
   -0.7333   -1.1500    0.0000 C   0  0  0  0  0  0           0  0  0
   -0.0292    0.0750    0.0000 C   0  0  0  0  0  0           0  0  0
   -1.4375   -0.7458    0.0000 C   0  0  0  0  0  0           0  0  0
   -0.7375    0.4834    0.0000 C   0  0  0  0  0  0           0  0  0
   -1.4417    0.0708    0.0000 C   0  0  0  0  0  0           0  0  0
    4.1858    0.1114    0.0000 O   0  0  0  0  0  0           0  0  0
    4.2292   -0.7458    0.0000 C   0  0  0  0  0  0           0  0  0
    5.0578   -0.9695    0.0000 C   0  0  0  0  0  0           0  0  0
    4.9876    0.4175    0.0000 C   0  0  0  0  0  0           0  0  0
    5.5251   -0.2487    0.0000 C   0  0  0  0  0  0           0  0  0
    6.3686   -0.1155    0.0000 N   0  0  0  0  0  0           0  0  0
    6.6758    0.6831    0.0000 C   0  0  0  0  0  0           0  0  0
    6.1331    1.3492    0.0000 C   0  0  0  0  0  0           0  0  0
    5.2915    1.2127    0.0000 C   0  0  0  0  0  0           0  0  0
    5.2667   -1.7625    0.0000 O   0  0  0  0  0  0           0  0  0
  1 17  1  0     0  0
  2  1  1  0     0  0
  3  2  2  0     0  0
  4  1  2  0     0  0
  5  3  1  0     0  0
  6  5  1  0     0  0
  7  6  1  0     0  0
  8  2  1  0     0  0
 16 17  1  0     0  0
  9  8  2  0     0  0
 10  9  1  0     0  0
 17 18  2  0     0  0
 18 20  1  0     0  0
 19 16  1  0     0  0
 11  7  1  0     0  0
 12  7  2  0     0  0
 19 20  2  0     0  0
 13 11  2  0     0  0
 20 21  1  0     0  0
 14 12  1  0     0  0
 21 22  2  0     0  0
 15 13  1  0     0  0
 22 23  1  0     0  0
 10  5  2  0     0  0
 23 24  2  0     0  0
 24 19  1  0     0  0
 15 14  2  0     0  0
 18 25  1  0     0  0
M  END
>  <prID>
208

>  <IDDB>
72583

>  <pIC50_HIV_Integrase>
6

>  <Q>
0.385463839

>  <Activity_Integrase>
Inactive_Integrase

NA
NA
NA
NA
$$$$

  Accelrys05311914332D 1   1.00000     0.00000     0

 30 31  0     0  0            999 V2000
   -2.3000   -0.7000    0.0000 C   0  0  0  0  0  0           0  0  0
    2.2375   -0.6667    0.0000 C   0  0  0  0  0  0           0  0  0
   -2.9917   -0.2833    0.0000 C   0  0  0  0  0  0           0  0  0
    2.9583   -0.1917    0.0000 C   0  0  0  0  0  0           0  0  0
   -1.5167   -0.2167    0.0000 O   0  0  0  0  0  0           0  0  0
    1.4792   -0.1000    0.0000 O   0  0  0  0  0  0           0  0  0
   -5.3958   -0.2750    0.0000 C   0  0  0  0  0  0           0  0  0
    5.4708   -0.2625    0.0000 C   0  0  0  0  0  0           0  0  0
   -3.6208   -0.6167    0.0000 C   0  0  0  0  0  0           0  0  0
    3.5625   -0.5625    0.0000 C   0  0  0  0  0  0           0  0  0
   -5.4083    0.4458    0.0000 C   0  0  0  0  0  0           0  0  0
    5.5000    0.4458    0.0000 C   0  0  0  0  0  0           0  0  0
   -0.7458    0.8333    0.0000 C   0  0  2  0  0  0           0  0  0
    0.4833    0.8292    0.0000 C   0  0  2  0  0  0           0  0  0
   -4.7958   -0.6000    0.0000 C   0  0  0  0  0  0           0  0  0
    4.8333   -0.6125    0.0000 C   0  0  0  0  0  0           0  0  0
   -2.3000   -1.6583    0.0000 O   0  0  0  0  0  0           0  0  0
    2.2375   -1.4583    0.0000 O   0  0  0  0  0  0           0  0  0
   -4.1625   -0.2500    0.0000 C   0  0  0  0  0  0           0  0  0
    4.2208   -0.2583    0.0000 C   0  0  0  0  0  0           0  0  0
   -4.8333    0.8125    0.0000 C   0  0  0  0  0  0           0  0  0
    4.8875    0.8417    0.0000 C   0  0  0  0  0  0           0  0  0
   -6.0583   -0.5583    0.0000 O   0  0  0  0  0  0           0  0  0
    6.1875   -0.6500    0.0000 O   0  0  0  0  0  0           0  0  0
   -4.1792    0.4708    0.0000 C   0  0  0  0  0  0           0  0  0
    4.2500    0.4875    0.0000 C   0  0  0  0  0  0           0  0  0
   -6.0458    0.7375    0.0000 O   0  0  0  0  0  0           0  0  0
    6.2167    0.8208    0.0000 O   0  0  0  0  0  0           0  0  0
   -1.0750    1.5917    0.0000 C   0  0  0  0  0  0           0  0  0
    0.8458    1.6542    0.0000 C   0  0  0  0  0  0           0  0  0
  2  6  1  0     0  0
  3  1  1  0     0  0
  4  2  1  0     0  0
  5  1  1  0     0  0
 14  6  1  6     0  0
  7 15  2  0     0  0
  8 16  1  0     0  0
  9  3  2  0     0  0
 10  4  2  0     0  0
 11 21  2  0     0  0
 12 22  1  0     0  0
 13  5  1  1     0  0
 14 13  1  0     0  0
 15 19  1  0     0  0
 16 20  2  0     0  0
 17  1  2  0     0  0
 18  2  2  0     0  0
 19  9  1  0     0  0
 20 10  1  0     0  0
 21 25  1  0     0  0
 22 26  2  0     0  0
 23  7  1  0     0  0
 24  8  1  0     0  0
 25 19  2  0     0  0
 26 20  1  0     0  0
 27 11  1  0     0  0
 28 12  1  0     0  0
 29 13  1  0     0  0
 30 14  1  0     0  0
 11  7  1  0     0  0
 12  8  2  0     0  0
M  END
>  <prID>
209

>  <IDDB>
72623

>  <pIC50_HIV_Integrase>
5.107905397

>  <Q>
-2.946821807

>  <Activity_Integrase>
Inactive_Integrase

NA
NA
NA
NA
$$$$

  Accelrys05311914332D 1   1.00000     0.00000     0

 32 34  0     0  0            999 V2000
   -2.2875   -0.9000    0.0000 C   0  0  0  0  0  0           0  0  0
    2.2458   -0.8667    0.0000 C   0  0  0  0  0  0           0  0  0
   -1.5042   -0.4167    0.0000 O   0  0  0  0  0  0           0  0  0
    1.4917   -0.3000    0.0000 O   0  0  0  0  0  0           0  0  0
   -2.9833   -0.4833    0.0000 C   0  0  0  0  0  0           0  0  0
    2.9667   -0.3917    0.0000 C   0  0  0  0  0  0           0  0  0
   -5.3833   -0.4750    0.0000 C   0  0  0  0  0  0           0  0  0
    5.4792   -0.4625    0.0000 C   0  0  0  0  0  0           0  0  0
   -0.7333    0.6250    0.0000 C   0  0  2  0  0  0           0  0  0
    0.4917    0.6292    0.0000 C   0  0  2  0  0  0           0  0  0
   -3.6083   -0.8167    0.0000 C   0  0  0  0  0  0           0  0  0
    3.5750   -0.7625    0.0000 C   0  0  0  0  0  0           0  0  0
   -5.4042    0.2500    0.0000 C   0  0  0  0  0  0           0  0  0
    5.5042    0.2500    0.0000 C   0  0  0  0  0  0           0  0  0
   -4.7833   -0.8000    0.0000 C   0  0  0  0  0  0           0  0  0
    4.8417   -0.8125    0.0000 C   0  0  0  0  0  0           0  0  0
   -2.2875   -1.8583    0.0000 O   0  0  0  0  0  0           0  0  0
    2.2500   -1.6583    0.0000 O   0  0  0  0  0  0           0  0  0
   -4.1583   -0.4500    0.0000 C   0  0  0  0  0  0           0  0  0
    4.2292   -0.4583    0.0000 C   0  0  0  0  0  0           0  0  0
   -4.8208    0.6125    0.0000 C   0  0  0  0  0  0           0  0  0
    4.9000    0.6417    0.0000 C   0  0  0  0  0  0           0  0  0
   -6.0458   -0.7583    0.0000 O   0  0  0  0  0  0           0  0  0
    6.2000   -0.8500    0.0000 O   0  0  0  0  0  0           0  0  0
   -4.1708    0.2708    0.0000 C   0  0  0  0  0  0           0  0  0
    4.2583    0.2875    0.0000 C   0  0  0  0  0  0           0  0  0
   -6.0375    0.5375    0.0000 O   0  0  0  0  0  0           0  0  0
    6.2250    0.6208    0.0000 O   0  0  0  0  0  0           0  0  0
   -1.3458    1.6833    0.0000 C   0  0  0  0  0  0           0  0  0
    1.1000    1.6833    0.0000 C   0  0  0  0  0  0           0  0  0
   -0.7333    2.7417    0.0000 C   0  0  0  0  0  0           0  0  0
    0.4875    2.7417    0.0000 C   0  0  0  0  0  0           0  0  0
  2  4  1  0     0  0
  3  1  1  0     0  0
 10  4  1  6     0  0
  5  1  1  0     0  0
  6  2  1  0     0  0
  7 15  2  0     0  0
  8 16  1  0     0  0
  9  3  1  1     0  0
 10  9  1  0     0  0
 11  5  2  0     0  0
 12  6  2  0     0  0
 13 21  2  0     0  0
 14 22  1  0     0  0
 15 19  1  0     0  0
 16 20  2  0     0  0
 17  1  2  0     0  0
 18  2  2  0     0  0
 19 11  1  0     0  0
 20 12  1  0     0  0
 21 25  1  0     0  0
 22 26  2  0     0  0
 23  7  1  0     0  0
 24  8  1  0     0  0
 25 19  2  0     0  0
 26 20  1  0     0  0
 27 13  1  0     0  0
 28 14  1  0     0  0
 29  9  1  0     0  0
 30 10  1  0     0  0
 31 29  1  0     0  0
 32 31  1  0     0  0
 32 30  1  0     0  0
 13  7  1  0     0  0
 14  8  2  0     0  0
M  END
>  <prID>
210

>  <IDDB>
72624

>  <pIC50_HIV_Integrase>
5.119186408

>  <Q>
-3.769604541

>  <Activity_Integrase>
Inactive_Integrase

NA
NA
NA
NA
$$$$

  Accelrys05311914332D 1   1.00000     0.00000     0

 28 29  0     0  0            999 V2000
   -2.1083   -0.5333    0.0000 C   0  0  0  0  0  0           0  0  0
   -2.7417   -0.1542    0.0000 C   0  0  0  0  0  0           0  0  0
    2.7000   -0.0708    0.0000 C   0  0  0  0  0  0           0  0  0
    2.0375   -0.5042    0.0000 C   0  0  0  0  0  0           0  0  0
   -4.9375   -0.1417    0.0000 C   0  0  0  0  0  0           0  0  0
    4.9917   -0.1333    0.0000 C   0  0  0  0  0  0           0  0  0
    3.2458   -0.4042    0.0000 C   0  0  0  0  0  0           0  0  0
   -3.3167   -0.4583    0.0000 C   0  0  0  0  0  0           0  0  0
   -4.9500    0.5125    0.0000 C   0  0  0  0  0  0           0  0  0
    5.0167    0.5125    0.0000 C   0  0  0  0  0  0           0  0  0
   -4.3875   -0.4375    0.0000 C   0  0  0  0  0  0           0  0  0
    4.4125   -0.4542    0.0000 C   0  0  0  0  0  0           0  0  0
   -2.1083   -1.4083    0.0000 O   0  0  0  0  0  0           0  0  0
    2.0375   -1.2208    0.0000 O   0  0  0  0  0  0           0  0  0
    3.8458   -0.1375    0.0000 C   0  0  0  0  0  0           0  0  0
   -3.8167   -0.1250    0.0000 C   0  0  0  0  0  0           0  0  0
    4.4583    0.8792    0.0000 C   0  0  0  0  0  0           0  0  0
   -4.4208    0.8500    0.0000 C   0  0  0  0  0  0           0  0  0
   -1.3917   -0.0958    0.0000 N   0  0  0  0  0  0           0  0  0
   -5.5417   -0.4000    0.0000 O   0  0  0  0  0  0           0  0  0
    5.6500   -0.4875    0.0000 O   0  0  0  0  0  0           0  0  0
   -3.8250    0.5375    0.0000 C   0  0  0  0  0  0           0  0  0
    3.8750    0.5500    0.0000 C   0  0  0  0  0  0           0  0  0
    1.3458    0.0125    0.0000 O   0  0  0  0  0  0           0  0  0
   -5.5417    0.7750    0.0000 O   0  0  0  0  0  0           0  0  0
    5.6792    0.8625    0.0000 O   0  0  0  0  0  0           0  0  0
   -0.6875    0.8708    0.0000 C   0  0  0  0  0  0           0  0  0
    0.4292    0.8667    0.0000 C   0  0  0  0  0  0           0  0  0
  2  1  1  0     0  0
  3  4  1  0     0  0
  4 24  1  0     0  0
  5 11  2  0     0  0
  6 12  1  0     0  0
  7  3  2  0     0  0
  8  2  2  0     0  0
  9 18  2  0     0  0
 10 17  1  0     0  0
 11 16  1  0     0  0
 12 15  2  0     0  0
 13  1  2  0     0  0
 14  4  2  0     0  0
 15  7  1  0     0  0
 16  8  1  0     0  0
 17 23  2  0     0  0
 18 22  1  0     0  0
 19  1  1  0     0  0
 20  5  1  0     0  0
 21  6  1  0     0  0
 22 16  2  0     0  0
 23 15  1  0     0  0
 24 28  1  0     0  0
 25  9  1  0     0  0
 26 10  1  0     0  0
 27 19  1  0     0  0
 28 27  1  0     0  0
  9  5  1  0     0  0
 10  6  2  0     0  0
M  END
>  <prID>
211

>  <IDDB>
72625

>  <pIC50_HIV_Integrase>
5.187086643

>  <Q>
-2.782899729

>  <Activity_Integrase>
Inactive_Integrase

NA
NA
NA
NA
$$$$

  Accelrys05311914332D 1   1.00000     0.00000     0

 18 19  0     0  0            999 V2000
    0.0792    0.4292    0.0000 C   0  0  0  0  0  0           0  0  0
    0.3333   -0.3583    0.0000 C   0  0  0  0  0  0           0  0  0
    1.1583   -0.3583    0.0000 S   0  0  0  0  0  0           0  0  0
    1.4167    0.4208    0.0000 C   0  0  0  0  0  0           0  0  0
    0.7542    0.9125    0.0000 C   0  0  0  0  0  0           0  0  0
   -0.7125    0.6500    0.0000 C   0  0  0  0  0  0           0  0  0
   -0.1583   -1.0208    0.0000 C   0  0  0  0  0  0           0  0  0
    2.2125    0.6750    0.0000 C   0  0  0  0  0  0           0  0  0
   -1.3417    0.1125    0.0000 S   0  0  0  0  0  0           0  0  0
   -1.0292    1.4125    0.0000 C   0  0  0  0  0  0           0  0  0
   -2.0417    0.5417    0.0000 C   0  0  0  0  0  0           0  0  0
    0.1750   -1.7750    0.0000 O   0  0  0  0  0  0           0  0  0
    2.3917    1.4833    0.0000 O   0  0  0  0  0  0           0  0  0
   -1.8542    1.3375    0.0000 C   0  0  0  0  0  0           0  0  0
    2.8167    0.1167    0.0000 O   0  0  0  0  0  0           0  0  0
   -0.9792   -0.9292    0.0000 O   0  0  0  0  0  0           0  0  0
   -1.6625   -1.4000    0.0000 C   0  0  0  0  0  0           0  0  0
   -1.6000   -2.2208    0.0000 C   0  0  0  0  0  0           0  0  0
  2  1  2  0     0  0
  3  2  1  0     0  0
  4  5  2  0     0  0
  5  1  1  0     0  0
  6  1  1  0     0  0
  7  2  1  0     0  0
  8  4  1  0     0  0
  9  6  1  0     0  0
 10  6  2  0     0  0
 11  9  1  0     0  0
 12  7  2  0     0  0
 13  8  2  0     0  0
 14 10  1  0     0  0
 15  8  1  0     0  0
 16  7  1  0     0  0
 17 16  1  0     0  0
 18 17  1  0     0  0
  4  3  1  0     0  0
 11 14  2  0     0  0
M  END
>  <prID>
212

>  <IDDB>
73314

>  <pIC50_HIV_Integrase>
4.5088643835

>  <Q>
1.131047557

>  <Activity_Integrase>
Inactive_Integrase

NA
NA
NA
NA
$$$$

  Accelrys05311914332D 1   1.00000     0.00000     0

 30 32  0     0  0            999 V2000
    1.3833    0.3667    0.0000 S   0  0  3  0  0  0           0  0  0
   -3.6500   -0.0667    0.0000 C   0  0  0  0  0  0           0  0  0
   -1.4792    0.3542    0.0000 C   0  0  0  0  0  0           0  0  0
   -2.2042   -0.0667    0.0000 N   0  0  0  0  0  0           0  0  0
    2.1083    0.7833    0.0000 N   0  0  0  0  0  0           0  0  0
   -2.9292    0.3458    0.0000 C   0  0  0  0  0  0           0  0  0
    0.6625   -0.0583    0.0000 C   0  0  0  0  0  0           0  0  0
   -3.6500   -0.8958    0.0000 C   0  0  0  0  0  0           0  0  0
   -0.7667   -0.0583    0.0000 C   0  0  0  0  0  0           0  0  0
    0.9625    1.0833    0.0000 O   0  0  0  0  0  0           0  0  0
    1.8083   -0.3583    0.0000 O   0  0  0  0  0  0           0  0  0
   -0.0542    0.3542    0.0000 C   0  0  0  0  0  0           0  0  0
   -1.4792    1.1792    0.0000 O   0  0  0  0  0  0           0  0  0
   -4.3625   -1.3083    0.0000 O   0  0  0  0  0  0           0  0  0
    2.8250    0.3708    0.0000 C   0  0  0  0  0  0           0  0  0
   -2.9292   -1.3083    0.0000 O   0  0  0  0  0  0           0  0  0
    4.2708   -0.4458    0.0000 C   0  0  0  0  0  0           0  0  0
   -4.3625    0.3458    0.0000 C   0  0  0  0  0  0           0  0  0
    3.5375    0.7917    0.0000 C   0  0  0  0  0  0           0  0  0
    2.8333   -0.4542    0.0000 C   0  0  0  0  0  0           0  0  0
    4.2583    0.3792    0.0000 C   0  0  0  0  0  0           0  0  0
    3.5458   -0.8583    0.0000 C   0  0  0  0  0  0           0  0  0
    4.9958   -0.8583    0.0000 O   0  0  0  0  0  0           0  0  0
    0.6625   -0.8833    0.0000 C   0  0  0  0  0  0           0  0  0
   -2.9292    1.1750    0.0000 C   0  0  0  0  0  0           0  0  0
   -0.7667   -0.8833    0.0000 C   0  0  0  0  0  0           0  0  0
   -0.0542   -1.2958    0.0000 C   0  0  0  0  0  0           0  0  0
    5.7083   -0.4417    0.0000 C   0  0  0  0  0  0           0  0  0
   -4.3625    1.1792    0.0000 C   0  0  0  0  0  0           0  0  0
   -3.6417    1.5833    0.0000 C   0  0  0  0  0  0           0  0  0
  2  6  2  0     0  0
  3  9  1  0     0  0
  4  3  1  0     0  0
  5  1  1  0     0  0
  6  4  1  0     0  0
  7  1  1  0     0  0
  8  2  1  0     0  0
  9 12  2  0     0  0
 10  1  2  0     0  0
 11  1  2  0     0  0
 12  7  1  0     0  0
 13  3  2  0     0  0
 14  8  2  0     0  0
 15  5  1  0     0  0
 16  8  1  0     0  0
 17 21  1  0     0  0
 18  2  1  0     0  0
 19 15  1  0     0  0
 20 15  2  0     0  0
 21 19  2  0     0  0
 22 20  1  0     0  0
 23 17  1  0     0  0
 24  7  2  0     0  0
 25  6  1  0     0  0
 26 27  2  0     0  0
 27 24  1  0     0  0
 28 23  1  0     0  0
 29 30  1  0     0  0
 30 25  2  0     0  0
 17 22  2  0     0  0
 26  9  1  0     0  0
 29 18  2  0     0  0
M  END
>  <prID>
213

>  <IDDB>
77413

>  <pIC50_HIV_Integrase>
3.522878745

>  <Q>
-1.392499293

>  <Activity_Integrase>
Inactive_Integrase

NA
NA
NA
NA
$$$$

  Accelrys05311914332D 1   1.00000     0.00000     0

 18 19  0     0  0            999 V2000
    1.9375   -1.0625    0.0000 S   0  0  3  0  0  0           0  0  0
    1.2250   -0.6583    0.0000 C   0  0  0  0  0  0           0  0  0
   -0.9208    0.5792    0.0000 C   0  0  0  0  0  0           0  0  0
   -0.9250    1.4042    0.0000 N   0  0  0  0  0  0           0  0  0
   -0.2042    0.1667    0.0000 C   0  0  0  0  0  0           0  0  0
   -0.2042   -0.6583    0.0000 C   0  0  0  0  0  0           0  0  0
    0.5125   -1.0708    0.0000 C   0  0  0  0  0  0           0  0  0
    2.5167   -0.4792    0.0000 O   0  0  0  0  0  0           0  0  0
    1.5167   -1.7792    0.0000 O   0  0  0  0  0  0           0  0  0
   -1.6417    1.8208    0.0000 C   0  0  0  0  0  0           0  0  0
    0.5042    0.5833    0.0000 C   0  0  0  0  0  0           0  0  0
    1.2208    0.1750    0.0000 C   0  0  0  0  0  0           0  0  0
    2.6500   -1.4792    0.0000 O   0  0  0  0  0  0           0  0  0
   -2.3833    1.4208    0.0000 O   0  0  0  0  0  0           0  0  0
   -1.6333    0.1625    0.0000 C   0  0  0  0  0  0           0  0  0
   -0.9208   -1.0792    0.0000 C   0  0  0  0  0  0           0  0  0
   -1.6333   -0.6625    0.0000 C   0  0  0  0  0  0           0  0  0
   -1.6458    2.6417    0.0000 C   0  0  0  0  0  0           0  0  0
  2  1  1  0     0  0
  3  5  2  0     0  0
  4  3  1  0     0  0
  5 11  1  0     0  0
  6  7  1  0     0  0
  7  2  2  0     0  0
  8  1  2  0     0  0
  9  1  2  0     0  0
 10  4  1  0     0  0
 11 12  2  0     0  0
 12  2  1  0     0  0
 13  1  1  0     0  0
 14 10  2  0     0  0
 15  3  1  0     0  0
 16  6  2  0     0  0
 17 16  1  0     0  0
 18 10  1  0     0  0
  6  5  1  0     0  0
 17 15  2  0     0  0
M  END
>  <prID>
214

>  <IDDB>
80746

>  <pIC50_HIV_Integrase>
4.844663963

>  <Q>
-1.508717881

>  <Activity_Integrase>
Inactive_Integrase

NA
NA
NA
NA
$$$$

  Accelrys05311914332D 1   1.00000     0.00000     0

 19 20  0     0  0            999 V2000
    1.9833   -0.9625    0.0000 S   0  0  3  0  0  0           0  0  0
   -0.1583   -0.5583    0.0000 C   0  0  0  0  0  0           0  0  0
    1.2750   -0.5542    0.0000 C   0  0  0  0  0  0           0  0  0
   -0.1583    0.2667    0.0000 C   0  0  0  0  0  0           0  0  0
    0.5583   -0.9708    0.0000 C   0  0  0  0  0  0           0  0  0
   -0.8708    0.6792    0.0000 C   0  0  0  0  0  0           0  0  0
   -0.8792    1.5042    0.0000 N   0  0  0  0  0  0           0  0  0
    2.5667   -0.3792    0.0000 O   0  0  0  0  0  0           0  0  0
    1.5667   -1.6792    0.0000 O   0  0  0  0  0  0           0  0  0
    0.5542    0.6833    0.0000 C   0  0  0  0  0  0           0  0  0
   -1.5958    1.9208    0.0000 C   0  0  0  0  0  0           0  0  0
   -0.8708   -0.9792    0.0000 C   0  0  0  0  0  0           0  0  0
    1.2708    0.2750    0.0000 C   0  0  0  0  0  0           0  0  0
    2.7000   -1.3792    0.0000 O   0  0  0  0  0  0           0  0  0
   -1.5833    0.2625    0.0000 C   0  0  0  0  0  0           0  0  0
   -2.3375    1.5208    0.0000 O   0  0  0  0  0  0           0  0  0
   -1.5833   -0.5625    0.0000 C   0  0  0  0  0  0           0  0  0
   -0.8792   -1.8000    0.0000 N   0  0  0  0  0  0           0  0  0
   -1.6000    2.7417    0.0000 C   0  0  0  0  0  0           0  0  0
  2  5  1  0     0  0
  3  1  1  0     0  0
  4 10  1  0     0  0
  5  3  2  0     0  0
  6  4  2  0     0  0
  7  6  1  0     0  0
  8  1  2  0     0  0
  9  1  2  0     0  0
 10 13  2  0     0  0
 11  7  1  0     0  0
 12  2  2  0     0  0
 13  3  1  0     0  0
 14  1  1  0     0  0
 15  6  1  0     0  0
 16 11  2  0     0  0
 17 12  1  0     0  0
 18 12  1  0     0  0
 19 11  1  0     0  0
  2  4  1  0     0  0
 17 15  2  0     0  0
M  END
>  <prID>
215

>  <IDDB>
80747

>  <pIC50_HIV_Integrase>
5.568636236

>  <Q>
-2.958903254

>  <Activity_Integrase>
Inactive_Integrase

NA
NA
NA
NA
$$$$

  Accelrys05311914332D 1   1.00000     0.00000     0

 16 16  0     0  0            999 V2000
   -1.8833    0.0375    0.0000 S   0  0  3  0  0  0           0  0  0
   -1.9083    0.8625    0.0000 N   0  0  0  0  0  0           0  0  0
   -1.0458    0.0625    0.0000 C   0  0  0  0  0  0           0  0  0
   -2.7083    0.0083    0.0000 O   0  0  0  0  0  0           0  0  0
   -1.8458   -0.7958    0.0000 O   0  0  0  0  0  0           0  0  0
    2.7042   -0.5333    0.0000 C   0  0  0  0  0  0           0  0  0
    3.0917    0.2000    0.0000 O   0  0  0  0  0  0           0  0  0
   -0.6083   -0.6375    0.0000 C   0  0  0  0  0  0           0  0  0
   -0.6583    0.7875    0.0000 C   0  0  0  0  0  0           0  0  0
    1.4417    0.1417    0.0000 O   0  0  0  0  0  0           0  0  0
   -2.6167    1.3583    0.0000 N   0  0  0  0  0  0           0  0  0
    1.8792   -0.5583    0.0000 C   0  0  0  0  0  0           0  0  0
    0.6083    0.1167    0.0000 C   0  0  0  0  0  0           0  0  0
    3.1375   -1.2250    0.0000 O   0  0  0  0  0  0           0  0  0
    0.2167   -0.6125    0.0000 C   0  0  0  0  0  0           0  0  0
    0.1667    0.8125    0.0000 C   0  0  0  0  0  0           0  0  0
  2  1  1  0     0  0
  3  1  1  0     0  0
  4  1  2  0     0  0
  5  1  2  0     0  0
  6 12  1  0     0  0
  7  6  2  0     0  0
  8  3  2  0     0  0
  9  3  1  0     0  0
 10 13  1  0     0  0
 11  2  1  0     0  0
 12 10  1  0     0  0
 13 16  1  0     0  0
 14  6  1  0     0  0
 15  8  1  0     0  0
 16  9  2  0     0  0
 13 15  2  0     0  0
M  END
>  <prID>
216

>  <IDDB>
80762

>  <pIC50_HIV_Integrase>
5.055517328

>  <Q>
-3.194654799

>  <Activity_Integrase>
Inactive_Integrase

NA
NA
NA
NA
$$$$

  Accelrys05311914332D 1   1.00000     0.00000     0

 27 30  0     0  0            999 V2000
   -0.1333   -0.8375    0.0000 N   0  0  0  0  0  0           0  0  0
   -0.9333    0.8208    0.0000 N   0  0  0  0  0  0           0  0  0
   -0.9333   -1.0250    0.0000 C   0  0  0  0  0  0           0  0  0
   -1.5750   -0.5167    0.0000 C   0  0  0  0  0  0           0  0  0
    1.7000    1.8417    0.0000 C   0  0  0  0  0  0           0  0  0
   -0.1333    0.6417    0.0000 C   0  0  0  0  0  0           0  0  0
   -1.5750    0.3125    0.0000 C   0  0  0  0  0  0           0  0  0
    2.5167    1.7208    0.0000 C   0  0  0  0  0  0           0  0  0
    1.1958    1.1875    0.0000 N   0  0  0  0  0  0           0  0  0
    0.3792    1.3000    0.0000 N   0  0  0  0  0  0           0  0  0
    3.0208    2.3750    0.0000 N   0  0  0  0  0  0           0  0  0
    0.2250   -0.1042    0.0000 C   0  0  0  0  0  0           0  0  0
    1.3875    2.5958    0.0000 O   0  0  0  0  0  0           0  0  0
   -1.2250   -1.7958    0.0000 C   0  0  0  0  0  0           0  0  0
    3.6458    0.8417    0.0000 N   0  0  0  0  0  0           0  0  0
    2.8250    0.9625    0.0000 C   0  0  0  0  0  0           0  0  0
   -2.2833   -0.9250    0.0000 C   0  0  0  0  0  0           0  0  0
   -2.2875    0.7208    0.0000 C   0  0  0  0  0  0           0  0  0
    3.8375    2.2625    0.0000 C   0  0  0  0  0  0           0  0  0
    4.1500    1.5000    0.0000 C   0  0  0  0  0  0           0  0  0
   -2.0375   -1.9375    0.0000 C   0  0  0  0  0  0           0  0  0
   -0.7000   -2.4333    0.0000 C   0  0  0  0  0  0           0  0  0
   -3.0042   -0.5167    0.0000 C   0  0  0  0  0  0           0  0  0
   -3.0000    0.3083    0.0000 C   0  0  0  0  0  0           0  0  0
   -2.3250   -2.7000    0.0000 C   0  0  0  0  0  0           0  0  0
   -0.9875   -3.2042    0.0000 C   0  0  0  0  0  0           0  0  0
   -1.8000   -3.3458    0.0000 C   0  0  0  0  0  0           0  0  0
  2  6  2  0     0  0
  3  1  2  0     0  0
  4  3  1  0     0  0
  5  9  1  0     0  0
  6 12  1  0     0  0
  7  4  1  0     0  0
  8  5  1  0     0  0
  9 10  1  0     0  0
 10  6  1  0     0  0
 11  8  1  0     0  0
 12  1  1  0     0  0
 13  5  2  0     0  0
 14  3  1  0     0  0
 15 16  1  0     0  0
 16  8  2  0     0  0
 17  4  2  0     0  0
 18  7  2  0     0  0
 19 11  2  0     0  0
 20 19  1  0     0  0
 21 14  2  0     0  0
 22 14  1  0     0  0
 23 17  1  0     0  0
 24 23  2  0     0  0
 25 21  1  0     0  0
 26 22  2  0     0  0
 27 26  1  0     0  0
  2  7  1  0     0  0
 27 25  2  0     0  0
 24 18  1  0     0  0
 20 15  2  0     0  0
M  END
>  <prID>
217

>  <IDDB>
80774

>  <pIC50_HIV_Integrase>
5.698970004

>  <Q>
-0.693945373

>  <Activity_Integrase>
Inactive_Integrase

NA
NA
NA
NA
$$$$

  Accelrys05311914332D 1   1.00000     0.00000     0

 29 32  0     0  0            999 V2000
   -0.7750   -0.9417    0.0000 C   0  0  0  0  0  0           0  0  0
    2.6667    1.7292    0.0000 C   0  0  0  0  0  0           0  0  0
   -1.4208   -0.4292    0.0000 C   0  0  0  0  0  0           0  0  0
    0.0292   -0.7583    0.0000 N   0  0  0  0  0  0           0  0  0
   -0.7750    0.9125    0.0000 N   0  0  0  0  0  0           0  0  0
    1.8708    1.9417    0.0000 C   0  0  0  0  0  0           0  0  0
   -1.4208    0.4000    0.0000 C   0  0  0  0  0  0           0  0  0
   -1.0667   -1.7167    0.0000 C   0  0  0  0  0  0           0  0  0
    2.9625    0.9625    0.0000 N   0  0  0  0  0  0           0  0  0
    0.0292    0.7292    0.0000 C   0  0  0  0  0  0           0  0  0
    3.3000    2.2500    0.0000 C   0  0  0  0  0  0           0  0  0
    3.7833    1.0083    0.0000 C   0  0  0  0  0  0           0  0  0
    1.3667    1.2833    0.0000 N   0  0  0  0  0  0           0  0  0
    3.9958    1.8083    0.0000 N   0  0  0  0  0  0           0  0  0
    0.5458    1.4000    0.0000 N   0  0  0  0  0  0           0  0  0
   -2.1292   -0.8417    0.0000 C   0  0  0  0  0  0           0  0  0
    0.3958   -0.0167    0.0000 C   0  0  0  0  0  0           0  0  0
   -0.5417   -2.3583    0.0000 C   0  0  0  0  0  0           0  0  0
    1.5583    2.7000    0.0000 O   0  0  0  0  0  0           0  0  0
   -2.1333    0.8125    0.0000 C   0  0  0  0  0  0           0  0  0
   -2.8542   -0.4292    0.0000 C   0  0  0  0  0  0           0  0  0
    0.2542   -2.1375    0.0000 Cl  0  0  0  0  0  0           0  0  0
   -2.8500    0.4000    0.0000 C   0  0  0  0  0  0           0  0  0
   -3.5667   -0.8375    0.0000 Br  0  0  0  0  0  0           0  0  0
   -1.8833   -1.8583    0.0000 C   0  0  0  0  0  0           0  0  0
    3.2500    3.0750    0.0000 C   0  0  0  0  0  0           0  0  0
   -0.8292   -3.1292    0.0000 C   0  0  0  0  0  0           0  0  0
   -2.1750   -2.6208    0.0000 C   0  0  0  0  0  0           0  0  0
   -1.6417   -3.2792    0.0000 C   0  0  0  0  0  0           0  0  0
  2  6  1  0     0  0
  3  1  1  0     0  0
  4  1  2  0     0  0
  5  7  1  0     0  0
  6 13  1  0     0  0
  7  3  1  0     0  0
  8  1  1  0     0  0
  9  2  1  0     0  0
 10 17  1  0     0  0
 11  2  2  0     0  0
 12  9  2  0     0  0
 13 15  1  0     0  0
 14 11  1  0     0  0
 15 10  1  0     0  0
 16  3  2  0     0  0
 17  4  1  0     0  0
 18  8  1  0     0  0
 19  6  2  0     0  0
 20  7  2  0     0  0
 21 16  1  0     0  0
 22 18  1  0     0  0
 23 21  2  0     0  0
 24 21  1  0     0  0
 25  8  2  0     0  0
 26 11  1  0     0  0
 27 18  2  0     0  0
 28 25  1  0     0  0
 29 28  2  0     0  0
 10  5  2  0     0  0
 29 27  1  0     0  0
 23 20  1  0     0  0
 12 14  1  0     0  0
M  END
>  <prID>
218

>  <IDDB>
80775

>  <pIC50_HIV_Integrase>
5.301029996

>  <Q>
-2.614005431

>  <Activity_Integrase>
Inactive_Integrase

NA
NA
NA
NA
$$$$

  Accelrys05311914332D 1   1.00000     0.00000     0

 36 40  0     0  0            999 V2000
    2.5750    0.5375    0.0000 C   0  0  0  0  0  0           0  0  0
    3.3792    0.7750    0.0000 N   0  0  3  0  0  0           0  0  0
   -2.3125   -0.5583    0.0000 S   0  0  3  0  0  0           0  0  0
    1.9667    1.1083    0.0000 C   0  0  0  0  0  0           0  0  0
    2.3792   -0.2750    0.0000 N   0  0  0  0  0  0           0  0  0
    3.9792    0.2042    0.0000 C   0  0  0  0  0  0           0  0  0
   -3.0292   -0.9875    0.0000 N   0  0  0  0  0  0           0  0  0
   -3.7500   -0.5792    0.0000 C   0  0  0  0  0  0           0  0  0
    3.7875   -0.6000    0.0000 C   0  0  0  0  0  0           0  0  0
    1.2583    0.6958    0.0000 C   0  0  0  0  0  0           0  0  0
    2.9875   -0.8417    0.0000 C   0  0  0  0  0  0           0  0  0
   -3.7583    0.2458    0.0000 N   0  0  0  0  0  0           0  0  0
   -4.4625   -1.0000    0.0000 N   0  0  0  0  0  0           0  0  0
    0.5458    1.1042    0.0000 N   0  0  0  0  0  0           0  0  0
   -1.5958   -0.1375    0.0000 C   0  0  0  0  0  0           0  0  0
    3.5708    1.5833    0.0000 C   0  0  0  0  0  0           0  0  0
    2.1625    1.9208    0.0000 C   0  0  0  0  0  0           0  0  0
   -2.7333    0.1583    0.0000 O   0  0  0  0  0  0           0  0  0
   -1.8875   -1.2792    0.0000 O   0  0  0  0  0  0           0  0  0
    4.7667    0.4333    0.0000 O   0  0  0  0  0  0           0  0  0
    2.9625    2.1583    0.0000 C   0  0  0  0  0  0           0  0  0
    1.2625   -0.1292    0.0000 O   0  0  0  0  0  0           0  0  0
   -4.4667    0.6542    0.0000 C   0  0  0  0  0  0           0  0  0
   -5.1833   -0.5958    0.0000 C   0  0  0  0  0  0           0  0  0
   -5.1917    0.2250    0.0000 C   0  0  0  0  0  0           0  0  0
   -0.8875   -0.5500    0.0000 C   0  0  0  0  0  0           0  0  0
   -1.5958    0.6833    0.0000 C   0  0  0  0  0  0           0  0  0
   -0.1750    0.6833    0.0000 C   0  0  0  0  0  0           0  0  0
    4.3833   -1.1667    0.0000 C   0  0  0  0  0  0           0  0  0
   -0.1750   -0.1375    0.0000 C   0  0  0  0  0  0           0  0  0
   -0.8875    1.0958    0.0000 C   0  0  0  0  0  0           0  0  0
    2.8042   -1.6458    0.0000 C   0  0  0  0  0  0           0  0  0
   -4.4542    1.4750    0.0000 C   0  0  0  0  0  0           0  0  0
   -5.9042   -1.0000    0.0000 C   0  0  0  0  0  0           0  0  0
    4.2000   -1.9708    0.0000 C   0  0  0  0  0  0           0  0  0
    3.4042   -2.2083    0.0000 C   0  0  0  0  0  0           0  0  0
  2  1  1  0     0  0
  3 15  1  0     0  0
  4  1  1  0     0  0
  5  1  2  0     0  0
  6  2  1  0     0  0
  7  3  1  0     0  0
  8  7  1  0     0  0
  9 11  1  0     0  0
 10  4  1  0     0  0
 11  5  1  0     0  0
 12  8  2  0     0  0
 13  8  1  0     0  0
 14 10  1  0     0  0
 15 26  1  0     0  0
 16  2  1  0     0  0
 17  4  2  0     0  0
 18  3  2  0     0  0
 19  3  2  0     0  0
 20  6  2  0     0  0
 21 17  1  0     0  0
 22 10  2  0     0  0
 23 12  1  0     0  0
 24 13  2  0     0  0
 25 24  1  0     0  0
 26 30  2  0     0  0
 27 31  1  0     0  0
 28 14  1  0     0  0
 29  9  2  0     0  0
 30 28  1  0     0  0
 31 28  2  0     0  0
 32 11  2  0     0  0
 33 23  1  0     0  0
 34 24  1  0     0  0
 35 29  1  0     0  0
 36 32  1  0     0  0
  9  6  1  0     0  0
 21 16  2  0     0  0
 35 36  2  0     0  0
 15 27  2  0     0  0
 25 23  2  0     0  0
M  END
>  <prID>
219

>  <IDDB>
80780

>  <pIC50_HIV_Integrase>
4.350665141

>  <Q>
-1.559800048

>  <Activity_Integrase>
Inactive_Integrase

NA
NA
NA
NA
$$$$

  Accelrys05311914332D 1   1.00000     0.00000     0

 36 40  0     0  0            999 V2000
   -2.3125   -0.5583    0.0000 S   0  0  3  0  0  0           0  0  0
    2.5750    0.5375    0.0000 C   0  0  0  0  0  0           0  0  0
   -3.0292   -0.9875    0.0000 N   0  0  0  0  0  0           0  0  0
    2.3792   -0.2750    0.0000 N   0  0  0  0  0  0           0  0  0
   -3.7500   -0.5792    0.0000 C   0  0  0  0  0  0           0  0  0
    1.9667    1.1083    0.0000 C   0  0  0  0  0  0           0  0  0
    1.2583    0.6958    0.0000 C   0  0  0  0  0  0           0  0  0
    3.3792    0.7750    0.0000 C   0  0  0  0  0  0           0  0  0
    3.9792    0.2042    0.0000 C   0  0  0  0  0  0           0  0  0
    3.7875   -0.6000    0.0000 C   0  0  0  0  0  0           0  0  0
    2.9875   -0.8417    0.0000 C   0  0  0  0  0  0           0  0  0
   -3.7583    0.2458    0.0000 N   0  0  0  0  0  0           0  0  0
   -4.4625   -1.0000    0.0000 N   0  0  0  0  0  0           0  0  0
    0.5458    1.1042    0.0000 N   0  0  0  0  0  0           0  0  0
   -1.5958   -0.1375    0.0000 C   0  0  0  0  0  0           0  0  0
   -2.7333    0.1583    0.0000 O   0  0  0  0  0  0           0  0  0
   -1.8875   -1.2792    0.0000 O   0  0  0  0  0  0           0  0  0
   -4.4667    0.6542    0.0000 C   0  0  0  0  0  0           0  0  0
   -5.1833   -0.5958    0.0000 C   0  0  0  0  0  0           0  0  0
    1.2625   -0.1292    0.0000 O   0  0  0  0  0  0           0  0  0
   -5.1917    0.2250    0.0000 C   0  0  0  0  0  0           0  0  0
    4.7708    0.4208    0.0000 N   0  0  0  0  0  0           0  0  0
   -0.8875   -0.5500    0.0000 C   0  0  0  0  0  0           0  0  0
   -1.5958    0.6833    0.0000 C   0  0  0  0  0  0           0  0  0
   -0.1750    0.6833    0.0000 C   0  0  0  0  0  0           0  0  0
    2.1625    1.9208    0.0000 C   0  0  0  0  0  0           0  0  0
    3.5708    1.5833    0.0000 C   0  0  0  0  0  0           0  0  0
   -0.1750   -0.1375    0.0000 C   0  0  0  0  0  0           0  0  0
   -0.8875    1.0958    0.0000 C   0  0  0  0  0  0           0  0  0
    4.3833   -1.1667    0.0000 C   0  0  0  0  0  0           0  0  0
    2.9625    2.1625    0.0000 C   0  0  0  0  0  0           0  0  0
    2.8042   -1.6417    0.0000 C   0  0  0  0  0  0           0  0  0
   -4.4542    1.4792    0.0000 C   0  0  0  0  0  0           0  0  0
   -5.9042   -1.0000    0.0000 C   0  0  0  0  0  0           0  0  0
    4.2000   -1.9708    0.0000 C   0  0  0  0  0  0           0  0  0
    3.4042   -2.2083    0.0000 C   0  0  0  0  0  0           0  0  0
  2  6  1  0     0  0
  3  1  1  0     0  0
  4  2  2  0     0  0
  5  3  1  0     0  0
  6  7  1  0     0  0
  7 14  1  0     0  0
  8  2  1  0     0  0
  9  8  2  0     0  0
 10 11  1  0     0  0
 11  4  1  0     0  0
 12  5  2  0     0  0
 13  5  1  0     0  0
 14 25  1  0     0  0
 15  1  1  0     0  0
 16  1  2  0     0  0
 17  1  2  0     0  0
 18 12  1  0     0  0
 19 13  2  0     0  0
 20  7  2  0     0  0
 21 19  1  0     0  0
 22  9  1  0     0  0
 23 15  1  0     0  0
 24 15  2  0     0  0
 25 28  1  0     0  0
 26  6  2  0     0  0
 27 31  2  0     0  0
 28 23  2  0     0  0
 29 24  1  0     0  0
 30 10  2  0     0  0
 31 26  1  0     0  0
 32 11  2  0     0  0
 33 18  1  0     0  0
 34 19  1  0     0  0
 35 30  1  0     0  0
 36 32  1  0     0  0
 29 25  2  0     0  0
 21 18  2  0     0  0
 27  8  1  0     0  0
 10  9  1  0     0  0
 35 36  2  0     0  0
M  END
>  <prID>
220

>  <IDDB>
80781

>  <pIC50_HIV_Integrase>
4.863279433

>  <Q>
-2.884311101

>  <Activity_Integrase>
Inactive_Integrase

NA
NA
NA
NA
$$$$

  Accelrys05311914332D 1   1.00000     0.00000     0

 18 19  0     0  0            999 V2000
   -2.2792    0.3458    0.0000 C   0  0  0  0  0  0           0  0  0
    2.2708   -0.3500    0.0000 C   0  0  0  0  0  0           0  0  0
    0.2083    0.3583    0.0000 C   0  0  0  0  0  0           0  0  0
   -0.2042   -0.3583    0.0000 C   0  0  0  0  0  0           0  0  0
   -2.6833   -0.3667    0.0000 C   0  0  0  0  0  0           0  0  0
    2.6833    0.3708    0.0000 C   0  0  0  0  0  0           0  0  0
   -1.4542    0.3542    0.0000 C   0  0  0  0  0  0           0  0  0
    1.4417   -0.3500    0.0000 C   0  0  0  0  0  0           0  0  0
    1.0333    0.3625    0.0000 C   0  0  0  0  0  0           0  0  0
   -1.0375   -0.3583    0.0000 C   0  0  0  0  0  0           0  0  0
    2.2667    1.0833    0.0000 C   0  0  0  0  0  0           0  0  0
   -2.2708   -1.0792    0.0000 C   0  0  0  0  0  0           0  0  0
   -2.6958    1.0750    0.0000 O   0  0  0  0  0  0           0  0  0
    2.6875   -1.0708    0.0000 O   0  0  0  0  0  0           0  0  0
   -1.4417   -1.0792    0.0000 C   0  0  0  0  0  0           0  0  0
    1.4417    1.0833    0.0000 C   0  0  0  0  0  0           0  0  0
   -3.5208   -0.3750    0.0000 O   0  0  0  0  0  0           0  0  0
    3.5167    0.3833    0.0000 O   0  0  0  0  0  0           0  0  0
  2  8  1  0     0  0
  3  4  2  0     0  0
  4 10  1  0     0  0
  5  1  2  0     0  0
  6 11  1  0     0  0
  7  1  1  0     0  0
  8  9  2  0     0  0
  9  3  1  0     0  0
 10  7  2  0     0  0
 11 16  2  0     0  0
 12  5  1  0     0  0
 13  1  1  0     0  0
 14  2  1  0     0  0
 15 10  1  0     0  0
 16  9  1  0     0  0
 17  5  1  0     0  0
 18  6  1  0     0  0
 15 12  2  0     0  0
  6  2  2  0     0  0
M  END
>  <prID>
221

>  <IDDB>
80783

>  <pIC50_HIV_Integrase>
6

>  <Q>
-1.45574603

>  <Activity_Integrase>
Inactive_Integrase

NA
NA
NA
NA
$$$$

  Accelrys05311914332D 1   1.00000     0.00000     0

 19 20  0     0  0            999 V2000
   -1.2458    0.8500    0.0000 C   0  0  0  0  0  0           0  0  0
   -0.5292    1.2792    0.0000 C   0  0  0  0  0  0           0  0  0
    0.9083   -0.4000    0.0000 C   0  0  0  0  0  0           0  0  0
   -0.5333   -0.3875    0.0000 S   0  0  0  0  0  0           0  0  0
   -1.2500    0.0208    0.0000 C   0  0  0  0  0  0           0  0  0
    0.9042   -1.2167    0.0000 C   0  0  0  0  0  0           0  0  0
    0.1833    0.0208    0.0000 C   0  0  0  0  0  0           0  0  0
    1.6167    0.0167    0.0000 C   0  0  0  0  0  0           0  0  0
    0.1958    0.8708    0.0000 O   0  0  0  0  0  0           0  0  0
    1.6208   -1.6333    0.0000 C   0  0  0  0  0  0           0  0  0
    2.3333   -0.3958    0.0000 C   0  0  0  0  0  0           0  0  0
   -0.5417    2.1083    0.0000 O   0  0  0  0  0  0           0  0  0
    2.3375   -1.2167    0.0000 C   0  0  0  0  0  0           0  0  0
    0.1833   -1.6417    0.0000 O   0  0  0  0  0  0           0  0  0
   -1.9625    1.2625    0.0000 C   0  0  0  0  0  0           0  0  0
    3.0542    0.0208    0.0000 O   0  0  0  0  0  0           0  0  0
   -1.9625   -0.3917    0.0000 C   0  0  0  0  0  0           0  0  0
   -2.6792    0.8500    0.0000 C   0  0  0  0  0  0           0  0  0
   -2.6792    0.0208    0.0000 C   0  0  0  0  0  0           0  0  0
  2  1  1  0     0  0
  3  7  1  0     0  0
  4  5  1  0     0  0
  5  1  2  0     0  0
  6  3  2  0     0  0
  7  4  1  0     0  0
  8  3  1  0     0  0
  9  2  2  0     0  0
 10  6  1  0     0  0
 11  8  2  0     0  0
 12  2  1  0     0  0
 13 11  1  0     0  0
 14  6  1  0     0  0
 15  1  1  0     0  0
 16 11  1  0     0  0
 17  5  1  0     0  0
 18 15  2  0     0  0
 19 18  1  0     0  0
 19 17  2  0     0  0
 13 10  2  0     0  0
M  END
>  <prID>
222

>  <IDDB>
80784

>  <pIC50_HIV_Integrase>
5.301029996

>  <Q>
-0.459011148

>  <Activity_Integrase>
Inactive_Integrase

NA
NA
NA
NA
$$$$

  Accelrys05311914332D 1   1.00000     0.00000     0

 19 20  0     0  0            999 V2000
    1.4375   -0.3958    0.0000 C   0  0  0  0  0  0           0  0  0
   -2.8792    1.2708    0.0000 C   0  0  0  0  0  0           0  0  0
   -2.1500    0.8500    0.0000 C   0  0  0  0  0  0           0  0  0
    1.4375   -1.2167    0.0000 C   0  0  0  0  0  0           0  0  0
    2.1500    0.0167    0.0000 C   0  0  0  0  0  0           0  0  0
    0.7167    0.0250    0.0000 C   0  0  0  0  0  0           0  0  0
    0.0000   -0.3875    0.0000 N   0  0  0  0  0  0           0  0  0
   -2.8833    2.1042    0.0000 O   0  0  0  0  0  0           0  0  0
   -2.1500    0.0208    0.0000 C   0  0  0  0  0  0           0  0  0
   -1.4292    1.2625    0.0000 C   0  0  0  0  0  0           0  0  0
    2.1500   -1.6333    0.0000 C   0  0  0  0  0  0           0  0  0
   -0.7208    0.0250    0.0000 C   0  0  0  0  0  0           0  0  0
    2.8625   -0.3917    0.0000 C   0  0  0  0  0  0           0  0  0
   -3.5917    0.8583    0.0000 O   0  0  0  0  0  0           0  0  0
   -0.7167    0.8542    0.0000 C   0  0  0  0  0  0           0  0  0
   -1.4375   -0.3917    0.0000 C   0  0  0  0  0  0           0  0  0
    2.8667   -1.2167    0.0000 C   0  0  0  0  0  0           0  0  0
    0.7167   -1.6417    0.0000 O   0  0  0  0  0  0           0  0  0
    3.5833    0.0208    0.0000 O   0  0  0  0  0  0           0  0  0
  2  3  1  0     0  0
  3  9  1  0     0  0
  4  1  2  0     0  0
  5  1  1  0     0  0
  6  1  1  0     0  0
  7  6  1  0     0  0
  8  2  2  0     0  0
  9 16  2  0     0  0
 10 15  1  0     0  0
 11  4  1  0     0  0
 12  7  1  0     0  0
 13  5  2  0     0  0
 14  2  1  0     0  0
 15 12  2  0     0  0
 16 12  1  0     0  0
 17 13  1  0     0  0
 18  4  1  0     0  0
 19 13  1  0     0  0
 17 11  2  0     0  0
  3 10  2  0     0  0
M  END
>  <prID>
223

>  <IDDB>
80785

>  <pIC50_HIV_Integrase>
5

>  <Q>
-1.955889219

>  <Activity_Integrase>
Inactive_Integrase

NA
NA
NA
NA
$$$$

  Accelrys05311914332D 1   1.00000     0.00000     0

 33 34  0     0  0            999 V2000
    2.8500    0.6583    0.0000 C   0  0  0  0  0  0           0  0  0
   -2.8500    0.6500    0.0000 C   0  0  0  0  0  0           0  0  0
   -2.1417    1.0667    0.0000 C   0  0  0  0  0  0           0  0  0
    2.1375    1.0750    0.0000 C   0  0  0  0  0  0           0  0  0
    2.8417   -0.1667    0.0000 C   0  0  0  0  0  0           0  0  0
   -2.8458   -0.1750    0.0000 C   0  0  0  0  0  0           0  0  0
    3.5583    1.0708    0.0000 C   0  0  0  0  0  0           0  0  0
   -3.5625    1.0625    0.0000 C   0  0  0  0  0  0           0  0  0
    4.2833    1.4625    0.0000 N   0  0  0  0  0  0           0  0  0
   -4.2833    1.4750    0.0000 N   0  0  0  0  0  0           0  0  0
    4.9833   -0.5875    0.0000 C   0  0  0  0  0  0           0  0  0
   -4.9875   -0.5958    0.0000 C   0  0  0  0  0  0           0  0  0
    3.5583   -0.5833    0.0000 C   0  0  0  0  0  0           0  0  0
   -3.5625   -0.5917    0.0000 C   0  0  0  0  0  0           0  0  0
    4.9833   -1.4125    0.0000 C   0  0  0  0  0  0           0  0  0
   -4.9875   -1.4167    0.0000 C   0  0  0  0  0  0           0  0  0
    4.2708   -0.1750    0.0000 C   0  0  0  0  0  0           0  0  0
   -4.2750   -0.1833    0.0000 C   0  0  0  0  0  0           0  0  0
   -2.1417    1.8917    0.0000 O   0  0  0  0  0  0           0  0  0
    2.1375    1.9000    0.0000 O   0  0  0  0  0  0           0  0  0
    1.4208    0.6625    0.0000 N   0  0  0  0  0  0           0  0  0
   -1.4250    0.6542    0.0000 N   0  0  0  0  0  0           0  0  0
   -4.2750   -1.8333    0.0000 C   0  0  0  0  0  0           0  0  0
    4.2708   -1.8250    0.0000 C   0  0  0  0  0  0           0  0  0
   -3.5583   -1.4167    0.0000 C   0  0  0  0  0  0           0  0  0
    3.5542   -1.4125    0.0000 C   0  0  0  0  0  0           0  0  0
    5.7000   -0.1708    0.0000 O   0  0  0  0  0  0           0  0  0
   -5.7042   -0.1792    0.0000 O   0  0  0  0  0  0           0  0  0
    5.7042   -1.8333    0.0000 O   0  0  0  0  0  0           0  0  0
   -5.7083   -1.8417    0.0000 O   0  0  0  0  0  0           0  0  0
    0.0000    0.6583    0.0000 C   0  0  0  0  0  0           0  0  0
   -0.7167    1.0667    0.0000 C   0  0  0  0  0  0           0  0  0
    0.7125    1.0708    0.0000 C   0  0  0  0  0  0           0  0  0
  2  3  1  0     0  0
  3 22  1  0     0  0
  4  1  1  0     0  0
  5  1  2  0     0  0
  6  2  2  0     0  0
  7  1  1  0     0  0
  8  2  1  0     0  0
  9  7  3  0     0  0
 10  8  3  0     0  0
 11 17  1  0     0  0
 12 18  1  0     0  0
 13  5  1  0     0  0
 14  6  1  0     0  0
 15 24  1  0     0  0
 16 23  1  0     0  0
 17 13  2  0     0  0
 18 14  2  0     0  0
 19  3  2  0     0  0
 20  4  2  0     0  0
 21  4  1  0     0  0
 22 32  1  0     0  0
 23 25  2  0     0  0
 24 26  2  0     0  0
 25 14  1  0     0  0
 26 13  1  0     0  0
 27 11  1  0     0  0
 28 12  1  0     0  0
 29 15  1  0     0  0
 30 16  1  0     0  0
 31 33  1  0     0  0
 32 31  1  0     0  0
 33 21  1  0     0  0
 15 11  2  0     0  0
 16 12  2  0     0  0
M  END
>  <prID>
224

>  <IDDB>
80786

>  <pIC50_HIV_Integrase>
6.096910013

>  <Q>
-2.501464706

>  <Activity_Integrase>
Active_Integrase

NA
NA
NA
NA
$$$$

  Accelrys05311914332D 1   1.00000     0.00000     0

 39 40  0     0  0            999 V2000
    4.2708   -1.3750    0.0000 C   0  0  0  0  0  0           0  0  0
   -4.2708   -1.3792    0.0000 C   0  0  0  0  0  0           0  0  0
    4.2667   -2.1958    0.0000 N   0  3  0  0  0  0           0  0  0
   -4.2833   -2.2042    0.0000 N   0  3  0  0  0  0           0  0  0
    2.8500    1.1083    0.0000 C   0  0  0  0  0  0           0  0  0
   -2.8500    1.1000    0.0000 C   0  0  0  0  0  0           0  0  0
   -4.9875   -0.9708    0.0000 C   0  0  0  0  0  0           0  0  0
    4.9833   -0.9583    0.0000 C   0  0  0  0  0  0           0  0  0
   -2.8458    0.2750    0.0000 C   0  0  0  0  0  0           0  0  0
    2.8458    0.2833    0.0000 C   0  0  0  0  0  0           0  0  0
   -2.1417    1.5167    0.0000 C   0  0  0  0  0  0           0  0  0
    2.1375    1.5250    0.0000 C   0  0  0  0  0  0           0  0  0
    4.9833   -0.1375    0.0000 C   0  0  0  0  0  0           0  0  0
   -4.9833   -0.1458    0.0000 C   0  0  0  0  0  0           0  0  0
    3.5625    1.5208    0.0000 C   0  0  0  0  0  0           0  0  0
   -3.5625    1.5167    0.0000 C   0  0  0  0  0  0           0  0  0
    3.5583   -0.1333    0.0000 C   0  0  0  0  0  0           0  0  0
   -3.5583   -0.1417    0.0000 C   0  0  0  0  0  0           0  0  0
    4.2667    1.9542    0.0000 N   0  0  0  0  0  0           0  0  0
   -4.3000    1.8917    0.0000 N   0  0  0  0  0  0           0  0  0
    3.5542   -0.9583    0.0000 C   0  0  0  0  0  0           0  0  0
   -3.5583   -0.9667    0.0000 C   0  0  0  0  0  0           0  0  0
    3.5500   -2.6042    0.0000 O   0  5  0  0  0  0           0  0  0
    4.9792   -2.6083    0.0000 O   0  0  0  0  0  0           0  0  0
   -4.9958   -2.6125    0.0000 O   0  5  0  0  0  0           0  0  0
   -3.5667   -2.6167    0.0000 O   0  0  0  0  0  0           0  0  0
    4.2708    0.2750    0.0000 C   0  0  0  0  0  0           0  0  0
   -4.2750    0.2667    0.0000 C   0  0  0  0  0  0           0  0  0
    2.1375    2.3500    0.0000 O   0  0  0  0  0  0           0  0  0
   -2.1417    2.3417    0.0000 O   0  0  0  0  0  0           0  0  0
   -1.4250    1.1042    0.0000 N   0  0  0  0  0  0           0  0  0
    1.4250    1.1125    0.0000 N   0  0  0  0  0  0           0  0  0
    5.7083   -1.3833    0.0000 O   0  0  0  0  0  0           0  0  0
   -5.7083   -1.3917    0.0000 O   0  0  0  0  0  0           0  0  0
   -5.7042    0.2708    0.0000 O   0  0  0  0  0  0           0  0  0
    5.7042    0.2792    0.0000 O   0  0  0  0  0  0           0  0  0
    0.0000    1.1083    0.0000 C   0  0  0  0  0  0           0  0  0
    0.7125    1.5208    0.0000 C   0  0  0  0  0  0           0  0  0
   -0.7125    1.5167    0.0000 C   0  0  0  0  0  0           0  0  0
  2 22  2  0     0  0
  3  1  1  0     0  0
  4  2  1  0     0  0
  5 10  2  0     0  0
  6 11  1  0     0  0
  7 14  2  0     0  0
  8  1  1  0     0  0
  9  6  2  0     0  0
 10 17  1  0     0  0
 11 31  1  0     0  0
 12  5  1  0     0  0
 13  8  2  0     0  0
 14 28  1  0     0  0
 15  5  1  0     0  0
 16  6  1  0     0  0
 17 21  1  0     0  0
 18  9  1  0     0  0
 19 15  3  0     0  0
 20 16  3  0     0  0
 21  1  2  0     0  0
 22 18  1  0     0  0
 23  3  1  0     0  0
 24  3  2  0     0  0
 25  4  1  0     0  0
 26  4  2  0     0  0
 27 13  1  0     0  0
 28 18  2  0     0  0
 29 12  2  0     0  0
 30 11  2  0     0  0
 31 39  1  0     0  0
 32 12  1  0     0  0
 33  8  1  0     0  0
 34  7  1  0     0  0
 35 14  1  0     0  0
 36 13  1  0     0  0
 37 38  1  0     0  0
 38 32  1  0     0  0
 39 37  1  0     0  0
 27 17  2  0     0  0
  7  2  1  0     0  0
M  CHG  4   3   1   4   1  23  -1  25  -1
M  END
>  <prID>
225

>  <IDDB>
80787

>  <pIC50_HIV_Integrase>
5.721246399

>  <Q>
-2.84033135

>  <Activity_Integrase>
Inactive_Integrase

NA
NA
NA
NA
$$$$

  Accelrys05311914332D 1   1.00000     0.00000     0

 35 36  0     0  0            999 V2000
    2.8500    0.8125    0.0000 C   0  0  0  0  0  0           0  0  0
   -2.8500    0.8000    0.0000 C   0  0  0  0  0  0           0  0  0
    2.8417   -0.0167    0.0000 C   0  0  0  0  0  0           0  0  0
   -2.8458   -0.0208    0.0000 C   0  0  0  0  0  0           0  0  0
    4.9833   -1.2583    0.0000 C   0  0  0  0  0  0           0  0  0
   -4.9875   -1.2667    0.0000 C   0  0  0  0  0  0           0  0  0
   -2.1417    1.2208    0.0000 C   0  0  0  0  0  0           0  0  0
    2.1375    1.2250    0.0000 C   0  0  0  0  0  0           0  0  0
   -3.5625    1.2208    0.0000 C   0  0  0  0  0  0           0  0  0
    3.5583    1.2208    0.0000 C   0  0  0  0  0  0           0  0  0
    4.2708   -1.6708    0.0000 C   0  0  0  0  0  0           0  0  0
   -4.2750   -1.6792    0.0000 C   0  0  0  0  0  0           0  0  0
   -4.9833   -0.4417    0.0000 C   0  0  0  0  0  0           0  0  0
    4.9833   -0.4375    0.0000 C   0  0  0  0  0  0           0  0  0
   -3.5625   -0.4375    0.0000 C   0  0  0  0  0  0           0  0  0
    3.5583   -0.4333    0.0000 C   0  0  0  0  0  0           0  0  0
   -4.3083    1.5792    0.0000 N   0  0  0  0  0  0           0  0  0
    4.2875    1.6125    0.0000 N   0  0  0  0  0  0           0  0  0
   -4.2750   -0.0292    0.0000 C   0  0  0  0  0  0           0  0  0
    4.2708   -0.0208    0.0000 C   0  0  0  0  0  0           0  0  0
    3.5542   -1.2583    0.0000 C   0  0  0  0  0  0           0  0  0
   -3.5583   -1.2667    0.0000 C   0  0  0  0  0  0           0  0  0
   -2.1417    2.0417    0.0000 O   0  0  0  0  0  0           0  0  0
    2.1375    2.0542    0.0000 O   0  0  0  0  0  0           0  0  0
    1.4208    0.8167    0.0000 N   0  0  0  0  0  0           0  0  0
   -1.4250    0.8042    0.0000 N   0  0  0  0  0  0           0  0  0
    5.7083   -1.6792    0.0000 O   0  0  0  0  0  0           0  0  0
   -5.7083   -1.6875    0.0000 O   0  0  0  0  0  0           0  0  0
    4.2625   -2.4958    0.0000 O   0  0  0  0  0  0           0  0  0
   -4.2833   -2.5000    0.0000 O   0  0  0  0  0  0           0  0  0
   -5.7042   -0.0250    0.0000 O   0  0  0  0  0  0           0  0  0
    5.7000   -0.0167    0.0000 O   0  0  0  0  0  0           0  0  0
    0.0000    0.8125    0.0000 C   0  0  0  0  0  0           0  0  0
    0.7125    1.2208    0.0000 C   0  0  0  0  0  0           0  0  0
   -0.7167    1.2208    0.0000 C   0  0  0  0  0  0           0  0  0
  2  7  1  0     0  0
  3  1  2  0     0  0
  4  2  2  0     0  0
  5 14  2  0     0  0
  6 13  2  0     0  0
  7 26  1  0     0  0
  8  1  1  0     0  0
  9  2  1  0     0  0
 10  1  1  0     0  0
 11 21  2  0     0  0
 12 22  2  0     0  0
 13 19  1  0     0  0
 14 20  1  0     0  0
 15  4  1  0     0  0
 16  3  1  0     0  0
 17  9  3  0     0  0
 18 10  3  0     0  0
 19 15  2  0     0  0
 20 16  2  0     0  0
 21 16  1  0     0  0
 22 15  1  0     0  0
 23  7  2  0     0  0
 24  8  2  0     0  0
 25  8  1  0     0  0
 26 35  1  0     0  0
 27  5  1  0     0  0
 28  6  1  0     0  0
 29 11  1  0     0  0
 30 12  1  0     0  0
 31 13  1  0     0  0
 32 14  1  0     0  0
 33 34  1  0     0  0
 34 25  1  0     0  0
 35 33  1  0     0  0
  5 11  1  0     0  0
  6 12  1  0     0  0
M  END
>  <prID>
226

>  <IDDB>
80788

>  <pIC50_HIV_Integrase>
6.795880017

>  <Q>
-4.136110769

>  <Activity_Integrase>
Active_Integrase

NA
NA
NA
NA
$$$$

  Accelrys05311914332D 1   1.00000     0.00000     0

 35 36  0     0  0            999 V2000
    2.8583    0.7833    0.0000 C   0  0  0  0  0  0           0  0  0
   -2.8417    0.8333    0.0000 C   0  0  0  0  0  0           0  0  0
    2.8417   -0.0458    0.0000 C   0  0  0  0  0  0           0  0  0
   -2.8458    0.0083    0.0000 C   0  0  0  0  0  0           0  0  0
    4.9708   -1.3125    0.0000 C   0  0  0  0  0  0           0  0  0
   -5.0000   -1.2125    0.0000 C   0  0  0  0  0  0           0  0  0
   -2.1250    1.2417    0.0000 C   0  0  0  0  0  0           0  0  0
    2.1500    1.2000    0.0000 C   0  0  0  0  0  0           0  0  0
   -4.2917   -1.6333    0.0000 C   0  0  0  0  0  0           0  0  0
    4.2542   -1.7167    0.0000 C   0  0  0  0  0  0           0  0  0
    3.5792    1.1833    0.0000 C   0  0  0  0  0  0           0  0  0
   -3.5542    1.2583    0.0000 C   0  0  0  0  0  0           0  0  0
    4.9792   -0.4917    0.0000 C   0  0  0  0  0  0           0  0  0
   -4.9875   -0.3875    0.0000 C   0  0  0  0  0  0           0  0  0
   -3.5625   -0.4000    0.0000 C   0  0  0  0  0  0           0  0  0
    3.5542   -0.4708    0.0000 C   0  0  0  0  0  0           0  0  0
   -4.2958    1.6125    0.0000 N   0  0  0  0  0  0           0  0  0
    4.2792    1.6125    0.0000 N   0  0  0  0  0  0           0  0  0
   -3.5667   -1.2292    0.0000 C   0  0  0  0  0  0           0  0  0
    3.5375   -1.2958    0.0000 C   0  0  0  0  0  0           0  0  0
    4.2708   -0.0667    0.0000 C   0  0  0  0  0  0           0  0  0
   -4.2750    0.0208    0.0000 C   0  0  0  0  0  0           0  0  0
   -2.1208    2.0667    0.0000 O   0  0  0  0  0  0           0  0  0
    2.1625    2.0292    0.0000 O   0  0  0  0  0  0           0  0  0
    1.4333    0.8000    0.0000 N   0  0  0  0  0  0           0  0  0
   -1.4167    0.8208    0.0000 N   0  0  0  0  0  0           0  0  0
    4.2375   -2.5375    0.0000 Br  0  0  0  0  0  0           0  0  0
   -4.3042   -2.4542    0.0000 Br  0  0  0  0  0  0           0  0  0
    5.6917   -1.7417    0.0000 O   0  0  0  0  0  0           0  0  0
   -5.7250   -1.6250    0.0000 O   0  0  0  0  0  0           0  0  0
    5.7000   -0.0792    0.0000 O   0  0  0  0  0  0           0  0  0
   -5.7042    0.0375    0.0000 O   0  0  0  0  0  0           0  0  0
    0.0083    0.8125    0.0000 C   0  0  0  0  0  0           0  0  0
    0.7250    1.2167    0.0000 C   0  0  0  0  0  0           0  0  0
   -0.7000    1.2250    0.0000 C   0  0  0  0  0  0           0  0  0
  2  7  1  0     0  0
  3  1  2  0     0  0
  4  2  2  0     0  0
  5 10  1  0     0  0
  6  9  1  0     0  0
  7 26  1  0     0  0
  8  1  1  0     0  0
  9 19  2  0     0  0
 10 20  2  0     0  0
 11  1  1  0     0  0
 12  2  1  0     0  0
 13 21  1  0     0  0
 14 22  1  0     0  0
 15  4  1  0     0  0
 16  3  1  0     0  0
 17 12  3  0     0  0
 18 11  3  0     0  0
 19 15  1  0     0  0
 20 16  1  0     0  0
 21 16  2  0     0  0
 22 15  2  0     0  0
 23  7  2  0     0  0
 24  8  2  0     0  0
 25  8  1  0     0  0
 26 35  1  0     0  0
 27 10  1  0     0  0
 28  9  1  0     0  0
 29  5  1  0     0  0
 30  6  1  0     0  0
 31 13  1  0     0  0
 32 14  1  0     0  0
 33 34  1  0     0  0
 34 25  1  0     0  0
 35 33  1  0     0  0
  5 13  2  0     0  0
  6 14  2  0     0  0
M  END
>  <prID>
227

>  <IDDB>
80789

>  <pIC50_HIV_Integrase>
6.397940009

>  <Q>
-2.515071871

>  <Activity_Integrase>
Active_Integrase

NA
NA
NA
NA
$$$$

  Accelrys05311914332D 1   1.00000     0.00000     0

 34 35  0     0  0            999 V2000
    3.2042    0.8625    0.0000 C   0  0  0  0  0  0           0  0  0
   -3.2083    0.4542    0.0000 C   0  0  0  0  0  0           0  0  0
   -2.4958    0.8708    0.0000 C   0  0  0  0  0  0           0  0  0
    2.4917    1.2833    0.0000 C   0  0  0  0  0  0           0  0  0
    3.2000    0.0417    0.0000 C   0  0  0  0  0  0           0  0  0
   -3.2042   -0.3708    0.0000 C   0  0  0  0  0  0           0  0  0
    3.9167    1.2792    0.0000 C   0  0  0  0  0  0           0  0  0
   -3.9208    0.8667    0.0000 C   0  0  0  0  0  0           0  0  0
    4.6167    1.7125    0.0000 N   0  0  0  0  0  0           0  0  0
   -4.6667    1.2250    0.0000 N   0  0  0  0  0  0           0  0  0
    5.3375   -0.3792    0.0000 C   0  0  0  0  0  0           0  0  0
   -5.3417   -0.7917    0.0000 C   0  0  0  0  0  0           0  0  0
    3.9125   -0.3792    0.0000 C   0  0  0  0  0  0           0  0  0
   -3.9167   -0.7875    0.0000 C   0  0  0  0  0  0           0  0  0
    5.3375   -1.2042    0.0000 C   0  0  0  0  0  0           0  0  0
   -5.3417   -1.6167    0.0000 C   0  0  0  0  0  0           0  0  0
    4.6250    0.0333    0.0000 C   0  0  0  0  0  0           0  0  0
   -4.6292   -0.3792    0.0000 C   0  0  0  0  0  0           0  0  0
   -2.5000    1.6958    0.0000 O   0  0  0  0  0  0           0  0  0
    2.4958    2.1083    0.0000 O   0  0  0  0  0  0           0  0  0
    1.7792    0.8708    0.0000 N   0  0  0  0  0  0           0  0  0
   -1.7833    0.4583    0.0000 N   0  0  0  0  0  0           0  0  0
   -4.6292   -2.0292    0.0000 C   0  0  0  0  0  0           0  0  0
    4.6250   -1.6167    0.0000 C   0  0  0  0  0  0           0  0  0
   -3.9125   -1.6167    0.0000 C   0  0  0  0  0  0           0  0  0
    3.9083   -1.2000    0.0000 C   0  0  0  0  0  0           0  0  0
    6.0583    0.0375    0.0000 O   0  0  0  0  0  0           0  0  0
   -6.0542   -0.3792    0.0000 O   0  0  0  0  0  0           0  0  0
    6.0625   -1.6250    0.0000 O   0  0  0  0  0  0           0  0  0
   -6.0583   -2.0375    0.0000 O   0  0  0  0  0  0           0  0  0
   -1.0708    0.8708    0.0000 C   0  0  0  0  0  0           0  0  0
    1.0667    0.4583    0.0000 C   0  0  0  0  0  0           0  0  0
    0.3542    0.8708    0.0000 C   0  0  0  0  0  0           0  0  0
   -0.3583    0.4583    0.0000 C   0  0  0  0  0  0           0  0  0
  2  3  1  0     0  0
  3 22  1  0     0  0
  4  1  1  0     0  0
  5  1  2  0     0  0
  6  2  2  0     0  0
  7  1  1  0     0  0
  8  2  1  0     0  0
  9  7  3  0     0  0
 10  8  3  0     0  0
 11 17  1  0     0  0
 12 18  1  0     0  0
 13  5  1  0     0  0
 14  6  1  0     0  0
 15 24  1  0     0  0
 16 23  1  0     0  0
 17 13  2  0     0  0
 18 14  2  0     0  0
 19  3  2  0     0  0
 20  4  2  0     0  0
 21  4  1  0     0  0
 22 31  1  0     0  0
 23 25  2  0     0  0
 24 26  2  0     0  0
 25 14  1  0     0  0
 26 13  1  0     0  0
 27 11  1  0     0  0
 28 12  1  0     0  0
 29 15  1  0     0  0
 30 16  1  0     0  0
 31 34  1  0     0  0
 32 21  1  0     0  0
 33 32  1  0     0  0
 34 33  1  0     0  0
 15 11  2  0     0  0
 16 12  2  0     0  0
M  END
>  <prID>
228

>  <IDDB>
80790

>  <pIC50_HIV_Integrase>
5.301029996

>  <Q>
-2.760818518

>  <Activity_Integrase>
Inactive_Integrase

NA
NA
NA
NA
$$$$

  Accelrys05311914332D 1   1.00000     0.00000     0

 36 37  0     0  0            999 V2000
    3.2042    1.0125    0.0000 C   0  0  0  0  0  0           0  0  0
   -3.2083    0.6000    0.0000 C   0  0  0  0  0  0           0  0  0
    3.2000    0.1875    0.0000 C   0  0  0  0  0  0           0  0  0
   -3.2000   -0.2208    0.0000 C   0  0  0  0  0  0           0  0  0
    5.3375   -1.0583    0.0000 C   0  0  0  0  0  0           0  0  0
   -5.3417   -1.4667    0.0000 C   0  0  0  0  0  0           0  0  0
   -2.4958    1.0208    0.0000 C   0  0  0  0  0  0           0  0  0
    2.4917    1.4292    0.0000 C   0  0  0  0  0  0           0  0  0
   -3.9250    1.0167    0.0000 C   0  0  0  0  0  0           0  0  0
    3.9167    1.4250    0.0000 C   0  0  0  0  0  0           0  0  0
    4.6250   -1.4667    0.0000 C   0  0  0  0  0  0           0  0  0
   -4.6292   -1.8792    0.0000 C   0  0  0  0  0  0           0  0  0
   -5.3417   -0.6417    0.0000 C   0  0  0  0  0  0           0  0  0
    5.3375   -0.2333    0.0000 C   0  0  0  0  0  0           0  0  0
   -3.9167   -0.6375    0.0000 C   0  0  0  0  0  0           0  0  0
    3.9125   -0.2292    0.0000 C   0  0  0  0  0  0           0  0  0
   -4.6625    1.3917    0.0000 N   0  0  0  0  0  0           0  0  0
    4.6625    1.7792    0.0000 N   0  0  0  0  0  0           0  0  0
   -4.6292   -0.2333    0.0000 C   0  0  0  0  0  0           0  0  0
    4.6292    0.1833    0.0000 C   0  0  0  0  0  0           0  0  0
    3.9083   -1.0542    0.0000 C   0  0  0  0  0  0           0  0  0
   -3.9125   -1.4667    0.0000 C   0  0  0  0  0  0           0  0  0
   -2.5000    1.8417    0.0000 O   0  0  0  0  0  0           0  0  0
    2.5000    2.2583    0.0000 O   0  0  0  0  0  0           0  0  0
    1.7792    1.0208    0.0000 N   0  0  0  0  0  0           0  0  0
   -1.7833    0.6042    0.0000 N   0  0  0  0  0  0           0  0  0
    6.0625   -1.4792    0.0000 O   0  0  0  0  0  0           0  0  0
   -6.0583   -1.8917    0.0000 O   0  0  0  0  0  0           0  0  0
    4.6208   -2.2917    0.0000 O   0  0  0  0  0  0           0  0  0
   -4.6375   -2.7000    0.0000 O   0  0  0  0  0  0           0  0  0
   -6.0583   -0.2292    0.0000 O   0  0  0  0  0  0           0  0  0
    6.0583    0.1833    0.0000 O   0  0  0  0  0  0           0  0  0
    1.0667    0.6042    0.0000 C   0  0  0  0  0  0           0  0  0
   -1.0708    1.0208    0.0000 C   0  0  0  0  0  0           0  0  0
   -0.3583    0.6042    0.0000 C   0  0  0  0  0  0           0  0  0
    0.3542    1.0208    0.0000 C   0  0  0  0  0  0           0  0  0
  2  7  1  0     0  0
  3  1  2  0     0  0
  4  2  2  0     0  0
  5 14  2  0     0  0
  6 13  2  0     0  0
  7 26  1  0     0  0
  8  1  1  0     0  0
  9  2  1  0     0  0
 10  1  1  0     0  0
 11 21  2  0     0  0
 12 22  2  0     0  0
 13 19  1  0     0  0
 14 20  1  0     0  0
 15  4  1  0     0  0
 16  3  1  0     0  0
 17  9  3  0     0  0
 18 10  3  0     0  0
 19 15  2  0     0  0
 20 16  2  0     0  0
 21 16  1  0     0  0
 22 15  1  0     0  0
 23  7  2  0     0  0
 24  8  2  0     0  0
 25  8  1  0     0  0
 26 34  1  0     0  0
 27  5  1  0     0  0
 28  6  1  0     0  0
 29 11  1  0     0  0
 30 12  1  0     0  0
 31 13  1  0     0  0
 32 14  1  0     0  0
 33 25  1  0     0  0
 34 35  1  0     0  0
 35 36  1  0     0  0
 36 33  1  0     0  0
  5 11  1  0     0  0
  6 12  1  0     0  0
M  END
>  <prID>
229

>  <IDDB>
80791

>  <pIC50_HIV_Integrase>
6.244125144

>  <Q>
-4.395464581

>  <Activity_Integrase>
Active_Integrase

NA
NA
NA
NA
$$$$

  Accelrys05311914332D 1   1.00000     0.00000     0

 35 36  0     0  0            999 V2000
    3.4042    0.5833    0.0000 C   0  0  0  0  0  0           0  0  0
   -3.4125    0.5792    0.0000 C   0  0  0  0  0  0           0  0  0
   -2.7250    0.9792    0.0000 C   0  0  0  0  0  0           0  0  0
    2.7208    0.9833    0.0000 C   0  0  0  0  0  0           0  0  0
    3.4000   -0.2042    0.0000 C   0  0  0  0  0  0           0  0  0
   -3.4042   -0.2125    0.0000 C   0  0  0  0  0  0           0  0  0
    4.0833    0.9792    0.0000 C   0  0  0  0  0  0           0  0  0
   -4.0958    0.9792    0.0000 C   0  0  0  0  0  0           0  0  0
    4.8000    1.3042    0.0000 N   0  0  0  0  0  0           0  0  0
   -4.7708    1.3833    0.0000 N   0  0  0  0  0  0           0  0  0
    5.4417   -0.6083    0.0000 C   0  0  0  0  0  0           0  0  0
   -5.4458   -0.6125    0.0000 C   0  0  0  0  0  0           0  0  0
    4.0792   -0.6042    0.0000 C   0  0  0  0  0  0           0  0  0
   -4.0875   -0.6083    0.0000 C   0  0  0  0  0  0           0  0  0
    5.4458   -1.3958    0.0000 C   0  0  0  0  0  0           0  0  0
   -5.4500   -1.4000    0.0000 C   0  0  0  0  0  0           0  0  0
    4.7583   -0.2167    0.0000 C   0  0  0  0  0  0           0  0  0
   -4.7667   -0.2167    0.0000 C   0  0  0  0  0  0           0  0  0
   -2.7292    1.7625    0.0000 O   0  0  0  0  0  0           0  0  0
    2.7250    1.7708    0.0000 O   0  0  0  0  0  0           0  0  0
    2.0375    0.5833    0.0000 N   0  0  0  0  0  0           0  0  0
   -2.0458    0.5833    0.0000 N   0  0  0  0  0  0           0  0  0
   -4.7667   -1.7958    0.0000 C   0  0  0  0  0  0           0  0  0
    4.7583   -1.7917    0.0000 C   0  0  0  0  0  0           0  0  0
   -4.0833   -1.4000    0.0000 C   0  0  0  0  0  0           0  0  0
    4.0792   -1.3958    0.0000 C   0  0  0  0  0  0           0  0  0
    6.1333   -0.2125    0.0000 O   0  0  0  0  0  0           0  0  0
   -6.1333   -0.2167    0.0000 O   0  0  0  0  0  0           0  0  0
    6.1375   -1.8000    0.0000 O   0  0  0  0  0  0           0  0  0
   -6.1375   -1.8042    0.0000 O   0  0  0  0  0  0           0  0  0
   -1.3667    0.9792    0.0000 C   0  0  0  0  0  0           0  0  0
    1.3583    0.9833    0.0000 C   0  0  0  0  0  0           0  0  0
    0.6792    0.5833    0.0000 C   0  0  0  0  0  0           0  0  0
   -0.6875    0.5833    0.0000 C   0  0  0  0  0  0           0  0  0
    0.0000    0.9792    0.0000 C   0  0  0  0  0  0           0  0  0
  2  3  1  0     0  0
  3 22  1  0     0  0
  4  1  1  0     0  0
  5  1  2  0     0  0
  6  2  2  0     0  0
  7  1  1  0     0  0
  8  2  1  0     0  0
  9  7  3  0     0  0
 10  8  3  0     0  0
 11 17  1  0     0  0
 12 18  1  0     0  0
 13  5  1  0     0  0
 14  6  1  0     0  0
 15 24  1  0     0  0
 16 23  1  0     0  0
 17 13  2  0     0  0
 18 14  2  0     0  0
 19  3  2  0     0  0
 20  4  2  0     0  0
 21  4  1  0     0  0
 22 31  1  0     0  0
 23 25  2  0     0  0
 24 26  2  0     0  0
 25 14  1  0     0  0
 26 13  1  0     0  0
 27 11  1  0     0  0
 28 12  1  0     0  0
 29 15  1  0     0  0
 30 16  1  0     0  0
 31 34  1  0     0  0
 32 21  1  0     0  0
 33 32  1  0     0  0
 34 35  1  0     0  0
 35 33  1  0     0  0
 15 11  2  0     0  0
 16 12  2  0     0  0
M  END
>  <prID>
230

>  <IDDB>
80792

>  <pIC50_HIV_Integrase>
5.301029996

>  <Q>
-3.018121573

>  <Activity_Integrase>
Inactive_Integrase

NA
NA
NA
NA
$$$$

  Accelrys05311914332D 1   1.00000     0.00000     0

 37 38  0     0  0            999 V2000
    3.4083    0.7167    0.0000 C   0  0  0  0  0  0           0  0  0
   -3.4083    0.7208    0.0000 C   0  0  0  0  0  0           0  0  0
    3.4000   -0.0750    0.0000 C   0  0  0  0  0  0           0  0  0
   -3.4000   -0.0667    0.0000 C   0  0  0  0  0  0           0  0  0
    5.4417   -1.2625    0.0000 C   0  0  0  0  0  0           0  0  0
   -5.4500   -1.2583    0.0000 C   0  0  0  0  0  0           0  0  0
   -2.7208    1.1208    0.0000 C   0  0  0  0  0  0           0  0  0
    2.7208    1.1167    0.0000 C   0  0  0  0  0  0           0  0  0
   -4.0917    1.1208    0.0000 C   0  0  0  0  0  0           0  0  0
    4.0917    1.1083    0.0000 C   0  0  0  0  0  0           0  0  0
    4.7583   -1.6583    0.0000 C   0  0  0  0  0  0           0  0  0
   -4.7625   -1.6458    0.0000 C   0  0  0  0  0  0           0  0  0
   -5.4458   -0.4667    0.0000 C   0  0  0  0  0  0           0  0  0
    5.4458   -0.4792    0.0000 C   0  0  0  0  0  0           0  0  0
   -4.0875   -0.4625    0.0000 C   0  0  0  0  0  0           0  0  0
    4.0792   -0.4750    0.0000 C   0  0  0  0  0  0           0  0  0
   -4.7833    1.5000    0.0000 N   0  0  0  0  0  0           0  0  0
    4.7792    1.4958    0.0000 N   0  0  0  0  0  0           0  0  0
   -4.7667   -0.0708    0.0000 C   0  0  0  0  0  0           0  0  0
    4.7625   -0.0792    0.0000 C   0  0  0  0  0  0           0  0  0
    4.0792   -1.2625    0.0000 C   0  0  0  0  0  0           0  0  0
   -4.0833   -1.2542    0.0000 C   0  0  0  0  0  0           0  0  0
   -2.7250    1.9042    0.0000 O   0  0  0  0  0  0           0  0  0
    2.7292    1.9000    0.0000 O   0  0  0  0  0  0           0  0  0
    2.0417    0.7208    0.0000 N   0  0  0  0  0  0           0  0  0
   -2.0417    0.7208    0.0000 N   0  0  0  0  0  0           0  0  0
    6.1333   -1.6708    0.0000 O   0  0  0  0  0  0           0  0  0
   -6.1375   -1.6583    0.0000 O   0  0  0  0  0  0           0  0  0
    4.7542   -2.4417    0.0000 O   0  0  0  0  0  0           0  0  0
   -4.7833   -2.4375    0.0000 O   0  0  0  0  0  0           0  0  0
   -6.1333   -0.0667    0.0000 O   0  0  0  0  0  0           0  0  0
    6.1333   -0.0792    0.0000 O   0  0  0  0  0  0           0  0  0
    1.3625    1.1167    0.0000 C   0  0  0  0  0  0           0  0  0
   -1.3625    1.1167    0.0000 C   0  0  0  0  0  0           0  0  0
   -0.6833    0.7208    0.0000 C   0  0  0  0  0  0           0  0  0
    0.6833    0.7208    0.0000 C   0  0  0  0  0  0           0  0  0
    0.0000    1.1167    0.0000 C   0  0  0  0  0  0           0  0  0
  2  7  1  0     0  0
  3  1  2  0     0  0
  4  2  2  0     0  0
  5 14  2  0     0  0
  6 13  2  0     0  0
  7 26  1  0     0  0
  8  1  1  0     0  0
  9  2  1  0     0  0
 10  1  1  0     0  0
 11 21  2  0     0  0
 12 22  2  0     0  0
 13 19  1  0     0  0
 14 20  1  0     0  0
 15  4  1  0     0  0
 16  3  1  0     0  0
 17  9  3  0     0  0
 18 10  3  0     0  0
 19 15  2  0     0  0
 20 16  2  0     0  0
 21 16  1  0     0  0
 22 15  1  0     0  0
 23  7  2  0     0  0
 24  8  2  0     0  0
 25  8  1  0     0  0
 26 34  1  0     0  0
 27  5  1  0     0  0
 28  6  1  0     0  0
 29 11  1  0     0  0
 30 12  1  0     0  0
 31 13  1  0     0  0
 32 14  1  0     0  0
 33 25  1  0     0  0
 34 35  1  0     0  0
 35 37  1  0     0  0
 36 33  1  0     0  0
 37 36  1  0     0  0
  5 11  1  0     0  0
  6 12  1  0     0  0
M  END
>  <prID>
231

>  <IDDB>
80793

>  <pIC50_HIV_Integrase>
6.769551079

>  <Q>
-4.652767635

>  <Activity_Integrase>
Active_Integrase

NA
NA
NA
NA
$$$$

  Accelrys05311914332D 1   1.00000     0.00000     0

 36 37  0     0  0            999 V2000
    3.5458    0.7542    0.0000 C   0  0  0  0  0  0           0  0  0
   -3.5500    0.3792    0.0000 C   0  0  0  0  0  0           0  0  0
   -2.9042    0.7500    0.0000 C   0  0  0  0  0  0           0  0  0
    2.9000    1.1375    0.0000 C   0  0  0  0  0  0           0  0  0
    3.5417    0.0083    0.0000 C   0  0  0  0  0  0           0  0  0
   -3.5458   -0.3708    0.0000 C   0  0  0  0  0  0           0  0  0
    4.1958    1.1333    0.0000 C   0  0  0  0  0  0           0  0  0
   -4.2042    0.7542    0.0000 C   0  0  0  0  0  0           0  0  0
    4.8583    1.4708    0.0000 N   0  0  0  0  0  0           0  0  0
   -4.8833    1.0625    0.0000 N   0  0  0  0  0  0           0  0  0
    5.4833   -0.3708    0.0000 C   0  0  0  0  0  0           0  0  0
   -5.4875   -0.7500    0.0000 C   0  0  0  0  0  0           0  0  0
    4.1917   -0.3667    0.0000 C   0  0  0  0  0  0           0  0  0
   -4.1958   -0.7458    0.0000 C   0  0  0  0  0  0           0  0  0
    5.4833   -1.1167    0.0000 C   0  0  0  0  0  0           0  0  0
   -5.4875   -1.5000    0.0000 C   0  0  0  0  0  0           0  0  0
    4.8375    0.0000    0.0000 C   0  0  0  0  0  0           0  0  0
   -4.8417   -0.3792    0.0000 C   0  0  0  0  0  0           0  0  0
   -2.9083    1.5000    0.0000 O   0  0  0  0  0  0           0  0  0
    2.9042    1.8833    0.0000 O   0  0  0  0  0  0           0  0  0
    2.2583    0.7625    0.0000 N   0  0  0  0  0  0           0  0  0
   -2.2625    0.3833    0.0000 N   0  0  0  0  0  0           0  0  0
   -4.8417   -1.8750    0.0000 C   0  0  0  0  0  0           0  0  0
    4.8375   -1.4917    0.0000 C   0  0  0  0  0  0           0  0  0
   -4.1917   -1.4958    0.0000 C   0  0  0  0  0  0           0  0  0
    4.1875   -1.1167    0.0000 C   0  0  0  0  0  0           0  0  0
    6.1333    0.0042    0.0000 O   0  0  0  0  0  0           0  0  0
   -6.1292   -0.3750    0.0000 O   0  0  0  0  0  0           0  0  0
    6.1375   -1.5000    0.0000 O   0  0  0  0  0  0           0  0  0
   -6.1375   -1.8833    0.0000 O   0  0  0  0  0  0           0  0  0
   -1.6167    0.7500    0.0000 C   0  0  0  0  0  0           0  0  0
    1.6125    0.3833    0.0000 C   0  0  0  0  0  0           0  0  0
    0.9708    0.7542    0.0000 C   0  0  0  0  0  0           0  0  0
   -0.9708    0.3833    0.0000 C   0  0  0  0  0  0           0  0  0
   -0.3250    0.7500    0.0000 C   0  0  0  0  0  0           0  0  0
    0.3208    0.3833    0.0000 C   0  0  0  0  0  0           0  0  0
  2  3  1  0     0  0
  3 22  1  0     0  0
  4  1  1  0     0  0
  5  1  2  0     0  0
  6  2  2  0     0  0
  7  1  1  0     0  0
  8  2  1  0     0  0
  9  7  3  0     0  0
 10  8  3  0     0  0
 11 17  1  0     0  0
 12 18  1  0     0  0
 13  5  1  0     0  0
 14  6  1  0     0  0
 15 24  1  0     0  0
 16 23  1  0     0  0
 17 13  2  0     0  0
 18 14  2  0     0  0
 19  3  2  0     0  0
 20  4  2  0     0  0
 21  4  1  0     0  0
 22 31  1  0     0  0
 23 25  2  0     0  0
 24 26  2  0     0  0
 25 14  1  0     0  0
 26 13  1  0     0  0
 27 11  1  0     0  0
 28 12  1  0     0  0
 29 15  1  0     0  0
 30 16  1  0     0  0
 31 34  1  0     0  0
 32 21  1  0     0  0
 33 32  1  0     0  0
 34 35  1  0     0  0
 35 36  1  0     0  0
 36 33  1  0     0  0
 15 11  2  0     0  0
 16 12  2  0     0  0
M  END
>  <prID>
232

>  <IDDB>
80794

>  <pIC50_HIV_Integrase>
5.958607315

>  <Q>
-3.275622788

>  <Activity_Integrase>
Inactive_Integrase

NA
NA
NA
NA
$$$$

  Accelrys05311914332D 1   1.00000     0.00000     0

 38 39  0     0  0            999 V2000
    3.7958    0.6000    0.0000 C   0  0  0  0  0  0           0  0  0
   -3.7917    0.3625    0.0000 C   0  0  0  0  0  0           0  0  0
   -3.2000    0.7000    0.0000 C   0  0  0  0  0  0           0  0  0
    3.2167    0.9500    0.0000 C   0  0  0  0  0  0           0  0  0
    3.7833   -0.0708    0.0000 C   0  0  0  0  0  0           0  0  0
   -3.7958   -0.3125    0.0000 C   0  0  0  0  0  0           0  0  0
    4.3875    0.9333    0.0000 C   0  0  0  0  0  0           0  0  0
   -4.3667    0.7125    0.0000 C   0  0  0  0  0  0           0  0  0
    5.0000    1.2167    0.0000 N   0  0  0  0  0  0           0  0  0
   -4.9333    1.0833    0.0000 N   0  0  0  0  0  0           0  0  0
    5.5292   -0.4375    0.0000 C   0  0  0  0  0  0           0  0  0
   -5.5500   -0.6292    0.0000 C   0  0  0  0  0  0           0  0  0
    4.3583   -0.4167    0.0000 C   0  0  0  0  0  0           0  0  0
   -4.3833   -0.6417    0.0000 C   0  0  0  0  0  0           0  0  0
    5.5167   -1.1167    0.0000 C   0  0  0  0  0  0           0  0  0
   -5.5625   -1.3042    0.0000 C   0  0  0  0  0  0           0  0  0
    4.9500   -0.0958    0.0000 C   0  0  0  0  0  0           0  0  0
   -4.9625   -0.3000    0.0000 C   0  0  0  0  0  0           0  0  0
   -3.1958    1.3750    0.0000 O   0  0  0  0  0  0           0  0  0
    3.2292    1.6250    0.0000 O   0  0  0  0  0  0           0  0  0
    2.6292    0.6208    0.0000 N   0  0  0  0  0  0           0  0  0
   -2.6208    0.3542    0.0000 N   0  0  0  0  0  0           0  0  0
   -4.9833   -1.6500    0.0000 C   0  0  0  0  0  0           0  0  0
    4.9250   -1.4458    0.0000 C   0  0  0  0  0  0           0  0  0
   -4.3875   -1.3167    0.0000 C   0  0  0  0  0  0           0  0  0
    4.3458   -1.0958    0.0000 C   0  0  0  0  0  0           0  0  0
    6.1208   -0.1083    0.0000 O   0  0  0  0  0  0           0  0  0
   -6.1250   -0.2792    0.0000 O   0  0  0  0  0  0           0  0  0
    6.1042   -1.4708    0.0000 O   0  0  0  0  0  0           0  0  0
   -6.1500   -1.6375    0.0000 O   0  0  0  0  0  0           0  0  0
   -2.0333    0.6833    0.0000 C   0  0  0  0  0  0           0  0  0
    2.0417    0.2917    0.0000 C   0  0  0  0  0  0           0  0  0
    1.4625    0.6375    0.0000 C   0  0  0  0  0  0           0  0  0
   -1.4542    0.3375    0.0000 C   0  0  0  0  0  0           0  0  0
    0.3000    0.6500    0.0000 C   0  0  0  0  0  0           0  0  0
   -0.2917    0.3208    0.0000 C   0  0  0  0  0  0           0  0  0
   -0.8667    0.6625    0.0000 C   0  0  0  0  0  0           0  0  0
    0.8792    0.3042    0.0000 C   0  0  0  0  0  0           0  0  0
  2  3  1  0     0  0
  3 22  1  0     0  0
  4  1  1  0     0  0
  5  1  2  0     0  0
  6  2  2  0     0  0
  7  1  1  0     0  0
  8  2  1  0     0  0
  9  7  3  0     0  0
 10  8  3  0     0  0
 11 17  1  0     0  0
 12 18  1  0     0  0
 13  5  1  0     0  0
 14  6  1  0     0  0
 15 24  1  0     0  0
 16 23  1  0     0  0
 17 13  2  0     0  0
 18 14  2  0     0  0
 19  3  2  0     0  0
 20  4  2  0     0  0
 21  4  1  0     0  0
 22 31  1  0     0  0
 23 25  2  0     0  0
 24 26  2  0     0  0
 25 14  1  0     0  0
 26 13  1  0     0  0
 27 11  1  0     0  0
 28 12  1  0     0  0
 29 15  1  0     0  0
 30 16  1  0     0  0
 31 34  1  0     0  0
 32 21  1  0     0  0
 33 32  1  0     0  0
 34 37  1  0     0  0
 35 38  1  0     0  0
 36 35  1  0     0  0
 37 36  1  0     0  0
 38 33  1  0     0  0
 15 11  2  0     0  0
 16 12  2  0     0  0
M  END
>  <prID>
233

>  <IDDB>
80795

>  <pIC50_HIV_Integrase>
5.301029996

>  <Q>
-3.790594151

>  <Activity_Integrase>
Inactive_Integrase

NA
NA
NA
NA
$$$$

  Accelrys05311914332D 1   1.00000     0.00000     0

 40 41  0     0  0            999 V2000
    4.0000    0.5792    0.0000 C   0  0  0  0  0  0           0  0  0
   -4.0000    0.2583    0.0000 C   0  0  0  0  0  0           0  0  0
   -3.4667    0.5750    0.0000 C   0  0  0  0  0  0           0  0  0
    3.4625    0.8958    0.0000 C   0  0  0  0  0  0           0  0  0
    3.9958   -0.0375    0.0000 C   0  0  0  0  0  0           0  0  0
   -4.0000   -0.3583    0.0000 C   0  0  0  0  0  0           0  0  0
    4.5333    0.8875    0.0000 C   0  0  0  0  0  0           0  0  0
   -4.5375    0.5708    0.0000 C   0  0  0  0  0  0           0  0  0
    5.0542    1.2208    0.0000 N   0  0  0  0  0  0           0  0  0
   -5.0958    0.8333    0.0000 N   0  0  0  0  0  0           0  0  0
    5.5958   -0.3500    0.0000 C   0  0  0  0  0  0           0  0  0
   -5.6000   -0.6708    0.0000 C   0  0  0  0  0  0           0  0  0
    4.5250   -0.3458    0.0000 C   0  0  0  0  0  0           0  0  0
   -4.5250   -0.6667    0.0000 C   0  0  0  0  0  0           0  0  0
    5.5958   -0.9667    0.0000 C   0  0  0  0  0  0           0  0  0
   -5.6000   -1.2875    0.0000 C   0  0  0  0  0  0           0  0  0
    5.0583   -0.0375    0.0000 C   0  0  0  0  0  0           0  0  0
   -5.0625   -0.3583    0.0000 C   0  0  0  0  0  0           0  0  0
   -3.4667    1.1917    0.0000 O   0  0  0  0  0  0           0  0  0
    3.4667    1.5125    0.0000 O   0  0  0  0  0  0           0  0  0
    2.9333    0.5833    0.0000 N   0  0  0  0  0  0           0  0  0
   -2.9333    0.2625    0.0000 N   0  0  0  0  0  0           0  0  0
   -5.0625   -1.5958    0.0000 C   0  0  0  0  0  0           0  0  0
    5.0583   -1.2750    0.0000 C   0  0  0  0  0  0           0  0  0
   -4.5250   -1.2875    0.0000 C   0  0  0  0  0  0           0  0  0
    4.5250   -0.9625    0.0000 C   0  0  0  0  0  0           0  0  0
    6.1333   -0.0375    0.0000 O   0  0  0  0  0  0           0  0  0
   -6.1292   -0.3583    0.0000 O   0  0  0  0  0  0           0  0  0
    6.1375   -1.2833    0.0000 O   0  0  0  0  0  0           0  0  0
   -6.1375   -1.6042    0.0000 O   0  0  0  0  0  0           0  0  0
   -2.4000    0.5750    0.0000 C   0  0  0  0  0  0           0  0  0
    2.4000    0.2708    0.0000 C   0  0  0  0  0  0           0  0  0
    1.8625    0.5792    0.0000 C   0  0  0  0  0  0           0  0  0
   -1.8625    0.2625    0.0000 C   0  0  0  0  0  0           0  0  0
   -1.3333    0.5750    0.0000 C   0  0  0  0  0  0           0  0  0
    1.3333    0.2708    0.0000 C   0  0  0  0  0  0           0  0  0
    0.8000    0.5792    0.0000 C   0  0  0  0  0  0           0  0  0
    0.2625    0.2667    0.0000 C   0  0  0  0  0  0           0  0  0
   -0.2667    0.5792    0.0000 C   0  0  0  0  0  0           0  0  0
   -0.8000    0.2625    0.0000 C   0  0  0  0  0  0           0  0  0
  2  3  1  0     0  0
  3 22  1  0     0  0
  4  1  1  0     0  0
  5  1  2  0     0  0
  6  2  2  0     0  0
  7  1  1  0     0  0
  8  2  1  0     0  0
  9  7  3  0     0  0
 10  8  3  0     0  0
 11 17  1  0     0  0
 12 18  1  0     0  0
 13  5  1  0     0  0
 14  6  1  0     0  0
 15 24  1  0     0  0
 16 23  1  0     0  0
 17 13  2  0     0  0
 18 14  2  0     0  0
 19  3  2  0     0  0
 20  4  2  0     0  0
 21  4  1  0     0  0
 22 31  1  0     0  0
 23 25  2  0     0  0
 24 26  2  0     0  0
 25 14  1  0     0  0
 26 13  1  0     0  0
 27 11  1  0     0  0
 28 12  1  0     0  0
 29 15  1  0     0  0
 30 16  1  0     0  0
 31 34  1  0     0  0
 32 21  1  0     0  0
 33 32  1  0     0  0
 34 35  1  0     0  0
 35 40  1  0     0  0
 36 33  1  0     0  0
 37 36  1  0     0  0
 38 37  1  0     0  0
 39 38  1  0     0  0
 40 39  1  0     0  0
 15 11  2  0     0  0
 16 12  2  0     0  0
M  END
>  <prID>
234

>  <IDDB>
80796

>  <pIC50_HIV_Integrase>
5.301029996

>  <Q>
-4.305566506

>  <Activity_Integrase>
Inactive_Integrase

NA
NA
NA
NA
$$$$

  Accelrys05311914332D 1   1.00000     0.00000     0

 38 40  0     0  0            999 V2000
    3.4083    0.5375    0.0000 C   0  0  0  0  0  0           0  0  0
   -3.4000    0.4167    0.0000 C   0  0  0  0  0  0           0  0  0
   -2.7167    0.8000    0.0000 C   0  0  0  0  0  0           0  0  0
    2.7375    0.9417    0.0000 C   0  0  0  0  0  0           0  0  0
    3.3875   -0.2542    0.0000 C   0  0  0  0  0  0           0  0  0
   -3.4167   -0.3750    0.0000 C   0  0  0  0  0  0           0  0  0
    4.1000    0.9125    0.0000 C   0  0  0  0  0  0           0  0  0
   -4.0833    0.8208    0.0000 C   0  0  0  0  0  0           0  0  0
    4.7708    1.3208    0.0000 N   0  0  0  0  0  0           0  0  0
   -4.7500    1.2333    0.0000 N   0  0  0  0  0  0           0  0  0
   -2.0458    0.3958    0.0000 N   0  0  0  0  0  0           0  0  0
    2.0458    0.5667    0.0000 N   0  0  0  0  0  0           0  0  0
    5.4167   -0.7000    0.0000 C   0  0  0  0  0  0           0  0  0
   -5.4583   -0.7375    0.0000 C   0  0  0  0  0  0           0  0  0
    4.0583   -0.6667    0.0000 C   0  0  0  0  0  0           0  0  0
   -4.1000   -0.7583    0.0000 C   0  0  0  0  0  0           0  0  0
    5.4042   -1.4792    0.0000 C   0  0  0  0  0  0           0  0  0
   -5.4750   -1.5250    0.0000 C   0  0  0  0  0  0           0  0  0
    4.7458   -0.2833    0.0000 C   0  0  0  0  0  0           0  0  0
   -4.7750   -0.3583    0.0000 C   0  0  0  0  0  0           0  0  0
   -2.7042    1.5833    0.0000 O   0  0  0  0  0  0           0  0  0
    2.7583    1.7292    0.0000 O   0  0  0  0  0  0           0  0  0
   -4.8000   -1.9292    0.0000 C   0  0  0  0  0  0           0  0  0
    4.7125   -1.8583    0.0000 C   0  0  0  0  0  0           0  0  0
    1.3625    0.1792    0.0000 C   0  0  0  0  0  0           0  0  0
   -1.3292    0.9000    0.0000 C   0  0  0  0  0  0           0  0  0
   -4.1083   -1.5500    0.0000 C   0  0  0  0  0  0           0  0  0
    4.0375   -1.4542    0.0000 C   0  0  0  0  0  0           0  0  0
   -0.0125    0.2417    0.0000 C   0  0  0  0  0  0           0  0  0
    6.1125   -0.3083    0.0000 O   0  0  0  0  0  0           0  0  0
   -6.1292   -0.3292    0.0000 O   0  0  0  0  0  0           0  0  0
   -0.6250    0.6667    0.0000 C   0  0  0  0  0  0           0  0  0
    0.6875    0.5917    0.0000 C   0  0  0  0  0  0           0  0  0
    6.0833   -1.9000    0.0000 O   0  0  0  0  0  0           0  0  0
   -6.1583   -1.9167    0.0000 O   0  0  0  0  0  0           0  0  0
    0.0792    1.8083    0.0000 C   0  0  0  0  0  0           0  0  0
   -0.6167    1.4542    0.0000 C   0  0  0  0  0  0           0  0  0
    0.7375    1.3792    0.0000 C   0  0  0  0  0  0           0  0  0
  2  3  1  0     0  0
  3 11  1  0     0  0
  4  1  1  0     0  0
  5  1  2  0     0  0
  6  2  2  0     0  0
  7  1  1  0     0  0
  8  2  1  0     0  0
  9  7  3  0     0  0
 10  8  3  0     0  0
 11 26  1  0     0  0
 12  4  1  0     0  0
 13 19  1  0     0  0
 14 20  1  0     0  0
 15  5  1  0     0  0
 16  6  1  0     0  0
 17 24  1  0     0  0
 18 23  1  0     0  0
 19 15  2  0     0  0
 20 16  2  0     0  0
 21  3  2  0     0  0
 22  4  2  0     0  0
 23 27  2  0     0  0
 24 28  2  0     0  0
 25 12  1  0     0  0
 26 32  1  0     0  0
 27 16  1  0     0  0
 28 15  1  0     0  0
 29 33  2  0     0  0
 30 13  1  0     0  0
 31 14  1  0     0  0
 32 29  1  0     0  0
 33 25  1  0     0  0
 34 17  1  0     0  0
 35 18  1  0     0  0
 36 38  2  0     0  0
 37 36  1  0     0  0
 38 33  1  0     0  0
 17 13  2  0     0  0
 37 32  2  0     0  0
 18 14  2  0     0  0
M  END
>  <prID>
235

>  <IDDB>
80797

>  <pIC50_HIV_Integrase>
5.301029996

>  <Q>
-1.495331565

>  <Activity_Integrase>
Inactive_Integrase

NA
NA
NA
NA
$$$$

  Accelrys05311914332D 1   1.00000     0.00000     0

 38 40  0     0  0            999 V2000
    3.4125    0.5125    0.0000 C   0  0  0  0  0  0           0  0  0
   -3.4417    0.4708    0.0000 C   0  0  0  0  0  0           0  0  0
   -2.7625    0.8667    0.0000 C   0  0  0  0  0  0           0  0  0
    2.7375    0.9083    0.0000 C   0  0  0  0  0  0           0  0  0
    3.4083   -0.2708    0.0000 C   0  0  0  0  0  0           0  0  0
   -3.4375   -0.3125    0.0000 C   0  0  0  0  0  0           0  0  0
    4.0917    0.9042    0.0000 C   0  0  0  0  0  0           0  0  0
   -4.1167    0.8667    0.0000 C   0  0  0  0  0  0           0  0  0
    4.7708    1.2958    0.0000 N   0  0  0  0  0  0           0  0  0
   -4.8292    1.1833    0.0000 N   0  0  0  0  0  0           0  0  0
   -2.0833    0.4750    0.0000 N   0  0  0  0  0  0           0  0  0
    2.0583    0.5167    0.0000 N   0  0  0  0  0  0           0  0  0
    5.4417   -0.6708    0.0000 C   0  0  0  0  0  0           0  0  0
   -5.4667   -0.7125    0.0000 C   0  0  0  0  0  0           0  0  0
    4.0833   -0.6667    0.0000 C   0  0  0  0  0  0           0  0  0
   -4.1083   -0.7083    0.0000 C   0  0  0  0  0  0           0  0  0
    5.4458   -1.4542    0.0000 C   0  0  0  0  0  0           0  0  0
   -5.4667   -1.4958    0.0000 C   0  0  0  0  0  0           0  0  0
    4.7625   -0.2792    0.0000 C   0  0  0  0  0  0           0  0  0
   -4.7917   -0.3167    0.0000 C   0  0  0  0  0  0           0  0  0
   -2.7625    1.6500    0.0000 O   0  0  0  0  0  0           0  0  0
    2.7375    1.6917    0.0000 O   0  0  0  0  0  0           0  0  0
   -4.7875   -1.8833    0.0000 C   0  0  0  0  0  0           0  0  0
    4.7625   -1.8417    0.0000 C   0  0  0  0  0  0           0  0  0
    1.3833    0.1208    0.0000 C   0  0  0  0  0  0           0  0  0
   -1.3167    0.8875    0.0000 C   0  0  0  0  0  0           0  0  0
   -4.1042   -1.4958    0.0000 C   0  0  0  0  0  0           0  0  0
    4.0833   -1.4500    0.0000 C   0  0  0  0  0  0           0  0  0
    6.1250   -0.2750    0.0000 O   0  0  0  0  0  0           0  0  0
   -6.1375   -0.3167    0.0000 O   0  0  0  0  0  0           0  0  0
    0.0083    0.1542    0.0000 C   0  0  0  0  0  0           0  0  0
    6.1292   -1.8542    0.0000 O   0  0  0  0  0  0           0  0  0
   -6.1417   -1.8958    0.0000 O   0  0  0  0  0  0           0  0  0
    0.7042    0.5125    0.0000 C   0  0  3  0  0  0           0  0  0
   -0.6500    0.5750    0.0000 C   0  0  3  0  0  0           0  0  0
    0.0750    1.7167    0.0000 C   0  0  0  0  0  0           0  0  0
   -0.6167    1.3542    0.0000 C   0  0  0  0  0  0           0  0  0
    0.7333    1.3000    0.0000 C   0  0  0  0  0  0           0  0  0
  2  3  1  0     0  0
  3 11  1  0     0  0
  4  1  1  0     0  0
  5  1  2  0     0  0
  6  2  2  0     0  0
  7  1  1  0     0  0
  8  2  1  0     0  0
  9  7  3  0     0  0
 10  8  3  0     0  0
 11 26  1  0     0  0
 12  4  1  0     0  0
 13 19  1  0     0  0
 14 20  1  0     0  0
 15  5  1  0     0  0
 16  6  1  0     0  0
 17 24  1  0     0  0
 18 23  1  0     0  0
 19 15  2  0     0  0
 20 16  2  0     0  0
 21  3  2  0     0  0
 22  4  2  0     0  0
 23 27  2  0     0  0
 24 28  2  0     0  0
 25 12  1  0     0  0
 26 35  1  0     0  0
 27 16  1  0     0  0
 28 15  1  0     0  0
 29 13  1  0     0  0
 30 14  1  0     0  0
 31 34  1  0     0  0
 32 17  1  0     0  0
 33 18  1  0     0  0
 34 25  1  0     0  0
 35 31  1  0     0  0
 36 38  1  0     0  0
 37 36  1  0     0  0
 38 34  1  0     0  0
 17 13  2  0     0  0
 37 35  1  0     0  0
 18 14  2  0     0  0
M  END
>  <prID>
236

>  <IDDB>
80798

>  <pIC50_HIV_Integrase>
5.301029996

>  <Q>
-3.679687364

>  <Activity_Integrase>
Inactive_Integrase

NA
NA
NA
NA
$$$$

  Accelrys05311914332D 1   1.00000     0.00000     0

 37 39  0     0  0            999 V2000
   -3.2250    0.4208    0.0000 C   0  0  0  0  0  0           0  0  0
    3.3750    0.8333    0.0000 C   0  0  0  0  0  0           0  0  0
   -2.5167    0.8375    0.0000 C   0  0  0  0  0  0           0  0  0
   -1.8125    0.4250    0.0000 N   0  0  3  0  0  0           0  0  0
   -3.2208   -0.4000    0.0000 C   0  0  0  0  0  0           0  0  0
    2.6667    1.2458    0.0000 C   0  0  0  0  0  0           0  0  0
    3.3708    0.0167    0.0000 C   0  0  0  0  0  0           0  0  0
   -3.9417    0.8375    0.0000 C   0  0  0  0  0  0           0  0  0
    4.0917    1.2417    0.0000 C   0  0  0  0  0  0           0  0  0
   -4.6292    1.2750    0.0000 N   0  0  0  0  0  0           0  0  0
    4.7958    1.6667    0.0000 N   0  0  0  0  0  0           0  0  0
   -0.1750    0.4292    0.0000 N   0  0  3  0  0  0           0  0  0
   -5.3458   -0.8167    0.0000 C   0  0  0  0  0  0           0  0  0
    5.5000   -0.4042    0.0000 C   0  0  0  0  0  0           0  0  0
   -3.9292   -0.8125    0.0000 C   0  0  0  0  0  0           0  0  0
    4.0792   -0.4000    0.0000 C   0  0  0  0  0  0           0  0  0
   -2.5208    1.6583    0.0000 O   0  0  0  0  0  0           0  0  0
   -5.3458   -1.6333    0.0000 C   0  0  0  0  0  0           0  0  0
    5.5000   -1.2208    0.0000 C   0  0  0  0  0  0           0  0  0
   -4.6417   -0.4042    0.0000 C   0  0  0  0  0  0           0  0  0
    4.7917    0.0042    0.0000 C   0  0  0  0  0  0           0  0  0
   -1.4000   -0.2792    0.0000 C   0  0  0  0  0  0           0  0  0
   -1.4000    1.1375    0.0000 C   0  0  0  0  0  0           0  0  0
    2.6708    2.0667    0.0000 O   0  0  0  0  0  0           0  0  0
    1.9625    0.8375    0.0000 N   0  0  0  0  0  0           0  0  0
    4.7875   -1.6333    0.0000 C   0  0  0  0  0  0           0  0  0
   -4.6417   -2.0417    0.0000 C   0  0  0  0  0  0           0  0  0
   -0.5833   -0.2792    0.0000 C   0  0  0  0  0  0           0  0  0
   -0.5833    1.1417    0.0000 C   0  0  0  0  0  0           0  0  0
    4.0792   -1.2208    0.0000 C   0  0  0  0  0  0           0  0  0
   -3.9250   -1.6333    0.0000 C   0  0  0  0  0  0           0  0  0
   -6.0583   -0.4000    0.0000 O   0  0  0  0  0  0           0  0  0
    6.2125    0.0083    0.0000 O   0  0  0  0  0  0           0  0  0
   -6.0583   -2.0542    0.0000 O   0  0  0  0  0  0           0  0  0
    6.2167   -1.6375    0.0000 O   0  0  0  0  0  0           0  0  0
    1.2500    0.4208    0.0000 C   0  0  0  0  0  0           0  0  0
    0.5375    0.8375    0.0000 C   0  0  0  0  0  0           0  0  0
  2  6  1  0     0  0
  3  1  1  0     0  0
  4  3  1  0     0  0
  5  1  2  0     0  0
  6 25  1  0     0  0
  7  2  2  0     0  0
  8  1  1  0     0  0
  9  2  1  0     0  0
 10  8  3  0     0  0
 11  9  3  0     0  0
 12 28  1  0     0  0
 13 20  1  0     0  0
 14 21  1  0     0  0
 15  5  1  0     0  0
 16  7  1  0     0  0
 17  3  2  0     0  0
 18 27  1  0     0  0
 19 26  1  0     0  0
 20 15  2  0     0  0
 21 16  2  0     0  0
 22  4  1  0     0  0
 23  4  1  0     0  0
 24  6  2  0     0  0
 25 36  1  0     0  0
 26 30  2  0     0  0
 27 31  2  0     0  0
 28 22  1  0     0  0
 29 23  1  0     0  0
 30 16  1  0     0  0
 31 15  1  0     0  0
 32 13  1  0     0  0
 33 14  1  0     0  0
 34 18  1  0     0  0
 35 19  1  0     0  0
 36 37  1  0     0  0
 37 12  1  0     0  0
 12 29  1  0     0  0
 18 13  2  0     0  0
 19 14  2  0     0  0
M  END
>  <prID>
237

>  <IDDB>
80799

>  <pIC50_HIV_Integrase>
5.301029996

>  <Q>
-1.965763029

>  <Activity_Integrase>
Inactive_Integrase

NA
NA
NA
NA
$$$$

  Accelrys05311914332D 1   1.00000     0.00000     0

 36 38  0     0  0            999 V2000
   -2.9125    0.6375    0.0000 C   0  0  0  0  0  0           0  0  0
    3.0167    0.6417    0.0000 C   0  0  0  0  0  0           0  0  0
   -2.2000    1.0542    0.0000 C   0  0  0  0  0  0           0  0  0
   -1.4875    0.6417    0.0000 N   0  0  3  0  0  0           0  0  0
    2.3000    1.0583    0.0000 C   0  0  0  0  0  0           0  0  0
   -2.9083   -0.1875    0.0000 C   0  0  0  0  0  0           0  0  0
    3.0125   -0.1833    0.0000 C   0  0  0  0  0  0           0  0  0
    1.5917    0.6458    0.0000 N   0  0  0  0  0  0           0  0  0
   -3.6333    1.0500    0.0000 C   0  0  0  0  0  0           0  0  0
    3.7292    1.0542    0.0000 C   0  0  0  0  0  0           0  0  0
   -4.3583    1.4417    0.0000 N   0  0  0  0  0  0           0  0  0
    0.1583    0.6417    0.0000 N   0  0  3  0  0  0           0  0  0
    4.5000    1.3542    0.0000 N   0  0  0  0  0  0           0  0  0
    0.8792    0.2292    0.0000 C   0  0  0  0  0  0           0  0  0
   -5.0458   -0.6083    0.0000 C   0  0  0  0  0  0           0  0  0
    5.1500   -0.6042    0.0000 C   0  0  0  0  0  0           0  0  0
   -3.6208   -0.6042    0.0000 C   0  0  0  0  0  0           0  0  0
    3.7208   -0.6000    0.0000 C   0  0  0  0  0  0           0  0  0
   -2.2000    1.8792    0.0000 O   0  0  0  0  0  0           0  0  0
   -5.0458   -1.4333    0.0000 C   0  0  0  0  0  0           0  0  0
    5.1500   -1.4250    0.0000 C   0  0  0  0  0  0           0  0  0
   -4.3333   -0.2000    0.0000 C   0  0  0  0  0  0           0  0  0
    4.4375   -0.1917    0.0000 C   0  0  0  0  0  0           0  0  0
   -1.0750   -0.0750    0.0000 C   0  0  0  0  0  0           0  0  0
   -1.0708    1.3542    0.0000 C   0  0  0  0  0  0           0  0  0
    2.3042    1.8833    0.0000 O   0  0  0  0  0  0           0  0  0
    4.4375   -1.8375    0.0000 C   0  0  0  0  0  0           0  0  0
   -4.3333   -1.8458    0.0000 C   0  0  0  0  0  0           0  0  0
   -0.2542    1.3542    0.0000 C   0  0  0  0  0  0           0  0  0
   -0.2500   -0.0750    0.0000 C   0  0  0  0  0  0           0  0  0
    3.7167   -1.4250    0.0000 C   0  0  0  0  0  0           0  0  0
   -3.6167   -1.4333    0.0000 C   0  0  0  0  0  0           0  0  0
   -5.7625   -0.1958    0.0000 O   0  0  0  0  0  0           0  0  0
    5.8667   -0.1875    0.0000 O   0  0  0  0  0  0           0  0  0
   -5.7708   -1.8583    0.0000 O   0  0  0  0  0  0           0  0  0
    5.8750   -1.8500    0.0000 O   0  0  0  0  0  0           0  0  0
  2  5  1  0     0  0
  3  1  1  0     0  0
  4  3  1  0     0  0
  5  8  1  0     0  0
  6  1  2  0     0  0
  7  2  2  0     0  0
  8 14  1  0     0  0
  9  1  1  0     0  0
 10  2  1  0     0  0
 11  9  3  0     0  0
 12 30  1  0     0  0
 13 10  3  0     0  0
 14 12  1  0     0  0
 15 22  1  0     0  0
 16 23  1  0     0  0
 17  6  1  0     0  0
 18  7  1  0     0  0
 19  3  2  0     0  0
 20 28  1  0     0  0
 21 27  1  0     0  0
 22 17  2  0     0  0
 23 18  2  0     0  0
 24  4  1  0     0  0
 25  4  1  0     0  0
 26  5  2  0     0  0
 27 31  2  0     0  0
 28 32  2  0     0  0
 29 25  1  0     0  0
 30 24  1  0     0  0
 31 18  1  0     0  0
 32 17  1  0     0  0
 33 15  1  0     0  0
 34 16  1  0     0  0
 35 20  1  0     0  0
 36 21  1  0     0  0
 12 29  1  0     0  0
 20 15  2  0     0  0
 21 16  2  0     0  0
M  END
>  <prID>
238

>  <IDDB>
80800

>  <pIC50_HIV_Integrase>
5.301029996

>  <Q>
-1.561709311

>  <Activity_Integrase>
Inactive_Integrase

NA
NA
NA
NA
$$$$

  Accelrys05311914332D 1   1.00000     0.00000     0

 43 46  0     0  0            999 V2000
   -3.6833    0.2167    0.0000 C   0  0  0  0  0  0           0  0  0
    3.6708    0.2167    0.0000 C   0  0  0  0  0  0           0  0  0
    3.0583    0.5750    0.0000 C   0  0  0  0  0  0           0  0  0
   -3.0667    0.5750    0.0000 C   0  0  0  0  0  0           0  0  0
   -3.6792   -0.4958    0.0000 C   0  0  0  0  0  0           0  0  0
    3.6708   -0.4958    0.0000 C   0  0  0  0  0  0           0  0  0
   -4.3000    0.5708    0.0000 C   0  0  0  0  0  0           0  0  0
    4.2958    0.5625    0.0000 C   0  0  0  0  0  0           0  0  0
   -4.8750    0.9875    0.0000 N   0  0  0  0  0  0           0  0  0
    4.8917    0.9458    0.0000 N   0  0  0  0  0  0           0  0  0
    2.4500    0.2208    0.0000 N   0  0  0  0  0  0           0  0  0
   -2.4542    0.2208    0.0000 N   0  0  0  0  0  0           0  0  0
   -5.5167   -0.8583    0.0000 C   0  0  0  0  0  0           0  0  0
    5.5125   -0.8583    0.0000 C   0  0  0  0  0  0           0  0  0
    4.2792   -0.8542    0.0000 C   0  0  0  0  0  0           0  0  0
   -4.2833   -0.8542    0.0000 C   0  0  0  0  0  0           0  0  0
   -5.5208   -1.5625    0.0000 C   0  0  0  0  0  0           0  0  0
    5.5167   -1.5583    0.0000 C   0  0  0  0  0  0           0  0  0
   -3.0708    1.2833    0.0000 O   0  0  0  0  0  0           0  0  0
    3.0625    1.2833    0.0000 O   0  0  0  0  0  0           0  0  0
    4.9000   -0.5000    0.0000 C   0  0  0  0  0  0           0  0  0
   -4.9042   -0.5000    0.0000 C   0  0  0  0  0  0           0  0  0
    4.9000   -1.9167    0.0000 C   0  0  0  0  0  0           0  0  0
   -4.9042   -1.9167    0.0000 C   0  0  0  0  0  0           0  0  0
    1.8375    0.5750    0.0000 C   0  0  3  0  0  0           0  0  0
   -1.8417    0.5750    0.0000 C   0  0  3  0  0  0           0  0  0
   -4.2833   -1.5625    0.0000 C   0  0  0  0  0  0           0  0  0
    4.2792   -1.5625    0.0000 C   0  0  0  0  0  0           0  0  0
   -6.1292   -0.5000    0.0000 O   0  0  0  0  0  0           0  0  0
    6.1292   -0.4958    0.0000 O   0  0  0  0  0  0           0  0  0
    0.0000    1.6417    0.0000 C   0  0  0  0  0  0           0  0  0
   -6.1375   -1.9333    0.0000 O   0  0  0  0  0  0           0  0  0
    6.1375   -1.9292    0.0000 O   0  0  0  0  0  0           0  0  0
   -0.6125    1.2833    0.0000 C   0  0  3  0  0  0           0  0  0
    0.6083    1.2833    0.0000 C   0  0  3  0  0  0           0  0  0
    1.8375    1.2833    0.0000 C   0  0  0  0  0  0           0  0  0
   -1.8417    1.2833    0.0000 C   0  0  0  0  0  0           0  0  0
   -1.2250    0.2208    0.0000 C   0  0  0  0  0  0           0  0  0
    1.2167    0.2208    0.0000 C   0  0  0  0  0  0           0  0  0
    0.6125    0.5750    0.0000 C   0  0  0  0  0  0           0  0  0
    1.2208    1.6417    0.0000 C   0  0  0  0  0  0           0  0  0
   -1.2250    1.6375    0.0000 C   0  0  0  0  0  0           0  0  0
   -0.6167    0.5708    0.0000 C   0  0  0  0  0  0           0  0  0
  2  3  1  0     0  0
  3 11  1  0     0  0
  4  1  1  0     0  0
  5  1  2  0     0  0
  6  2  2  0     0  0
  7  1  1  0     0  0
  8  2  1  0     0  0
  9  7  3  0     0  0
 10  8  3  0     0  0
 11 25  1  0     0  0
 12  4  1  0     0  0
 13 22  1  0     0  0
 14 21  1  0     0  0
 15  6  1  0     0  0
 16  5  1  0     0  0
 17 24  1  0     0  0
 18 23  1  0     0  0
 19  4  2  0     0  0
 20  3  2  0     0  0
 21 15  2  0     0  0
 22 16  2  0     0  0
 23 28  2  0     0  0
 24 27  2  0     0  0
 25 36  1  0     0  0
 26 12  1  0     0  0
 27 16  1  0     0  0
 28 15  1  0     0  0
 29 13  1  0     0  0
 30 14  1  0     0  0
 31 34  1  0     0  0
 32 17  1  0     0  0
 33 18  1  0     0  0
 34 42  1  0     0  0
 35 31  1  0     0  0
 36 41  1  0     0  0
 37 26  1  0     0  0
 38 26  1  0     0  0
 39 40  1  0     0  0
 40 35  1  0     0  0
 41 35  1  0     0  0
 42 37  1  0     0  0
 43 38  1  0     0  0
 17 13  2  0     0  0
 43 34  1  0     0  0
 25 39  1  0     0  0
 18 14  2  0     0  0
M  END
>  <prID>
239

>  <IDDB>
80801

>  <pIC50_HIV_Integrase>
5.522878745

>  <Q>
-5.519261895

>  <Activity_Integrase>
Inactive_Integrase

NA
NA
NA
NA
$$$$

  Accelrys05311914332D 1   1.00000     0.00000     0

 38 40  0     0  0            999 V2000
    3.2708    0.5042    0.0000 C   0  0  0  0  0  0           0  0  0
   -3.2833    0.5000    0.0000 C   0  0  0  0  0  0           0  0  0
    2.5583    0.9208    0.0000 C   0  0  0  0  0  0           0  0  0
   -2.5708    0.9208    0.0000 C   0  0  0  0  0  0           0  0  0
    3.2667   -0.3208    0.0000 C   0  0  0  0  0  0           0  0  0
   -3.2792   -0.3292    0.0000 C   0  0  0  0  0  0           0  0  0
    3.9875    0.9208    0.0000 C   0  0  0  0  0  0           0  0  0
   -4.0042    0.9125    0.0000 C   0  0  0  0  0  0           0  0  0
    4.7292    1.2875    0.0000 N   0  0  0  0  0  0           0  0  0
   -4.6875    1.3833    0.0000 N   0  0  0  0  0  0           0  0  0
    5.4167   -0.7458    0.0000 C   0  0  0  0  0  0           0  0  0
   -5.4250   -0.7583    0.0000 C   0  0  0  0  0  0           0  0  0
    1.8375    0.5083    0.0000 O   0  0  0  0  0  0           0  0  0
   -1.8542    0.5083    0.0000 O   0  0  0  0  0  0           0  0  0
   -3.9917   -0.7500    0.0000 C   0  0  0  0  0  0           0  0  0
    3.9833   -0.7417    0.0000 C   0  0  0  0  0  0           0  0  0
    5.4167   -1.5750    0.0000 C   0  0  0  0  0  0           0  0  0
   -5.4250   -1.5833    0.0000 C   0  0  0  0  0  0           0  0  0
    4.7000   -0.3333    0.0000 C   0  0  0  0  0  0           0  0  0
   -4.7125   -0.3375    0.0000 C   0  0  0  0  0  0           0  0  0
    2.5583    1.7500    0.0000 O   0  0  0  0  0  0           0  0  0
   -2.5750    1.7458    0.0000 O   0  0  0  0  0  0           0  0  0
    0.4167    0.5042    0.0000 C   0  0  0  0  0  0           0  0  0
   -0.4083    0.5000    0.0000 C   0  0  0  0  0  0           0  0  0
    1.1250    0.0917    0.0000 C   0  0  0  0  0  0           0  0  0
   -1.1333    0.0958    0.0000 C   0  0  0  0  0  0           0  0  0
    4.7000   -1.9875    0.0000 C   0  0  0  0  0  0           0  0  0
   -4.7042   -1.9958    0.0000 C   0  0  0  0  0  0           0  0  0
    3.9792   -1.5750    0.0000 C   0  0  0  0  0  0           0  0  0
   -3.9875   -1.5792    0.0000 C   0  0  0  0  0  0           0  0  0
    6.1375   -0.3292    0.0000 O   0  0  0  0  0  0           0  0  0
   -6.1333   -0.3375    0.0000 O   0  0  0  0  0  0           0  0  0
    6.1375   -2.0000    0.0000 O   0  0  0  0  0  0           0  0  0
   -6.1333   -2.0083    0.0000 O   0  0  0  0  0  0           0  0  0
    0.8208    1.2292    0.0000 C   0  0  0  0  0  0           0  0  0
   -0.7917    1.1958    0.0000 C   0  0  0  0  0  0           0  0  0
    0.4042    1.9375    0.0000 C   0  0  0  0  0  0           0  0  0
   -0.4208    1.9333    0.0000 C   0  0  0  0  0  0           0  0  0
  2  4  1  0     0  0
  3  1  1  0     0  0
  4 14  1  0     0  0
  5  1  2  0     0  0
  6  2  2  0     0  0
  7  1  1  0     0  0
  8  2  1  0     0  0
  9  7  3  0     0  0
 10  8  3  0     0  0
 11 19  1  0     0  0
 12 20  1  0     0  0
 13  3  1  0     0  0
 14 26  1  0     0  0
 15  6  1  0     0  0
 16  5  1  0     0  0
 17 27  1  0     0  0
 18 28  1  0     0  0
 19 16  2  0     0  0
 20 15  2  0     0  0
 21  3  2  0     0  0
 22  4  2  0     0  0
 23 25  1  0     0  0
 24 23  2  0     0  0
 25 13  1  0     0  0
 26 24  1  0     0  0
 27 29  2  0     0  0
 28 30  2  0     0  0
 29 16  1  0     0  0
 30 15  1  0     0  0
 31 11  1  0     0  0
 32 12  1  0     0  0
 33 17  1  0     0  0
 34 18  1  0     0  0
 35 23  1  0     0  0
 36 24  1  0     0  0
 37 35  2  0     0  0
 38 37  1  0     0  0
 17 11  2  0     0  0
 38 36  2  0     0  0
 18 12  2  0     0  0
M  END
>  <prID>
240

>  <IDDB>
80802

>  <pIC50_HIV_Integrase>
6.070581074

>  <Q>
-0.801872893

>  <Activity_Integrase>
Active_Integrase

NA
NA
NA
NA
$$$$

  Accelrys05311914332D 1   1.00000     0.00000     0

 25 26  0     0  0            999 V2000
    0.3250    0.2333    0.0000 S   0  0  3  0  0  0           0  0  0
   -0.4958    0.2250    0.0000 C   0  0  0  0  0  0           0  0  0
    1.1583    0.2375    0.0000 C   0  0  0  0  0  0           0  0  0
   -0.9042   -0.4917    0.0000 C   0  0  0  0  0  0           0  0  0
    1.5792   -0.4750    0.0000 C   0  0  0  0  0  0           0  0  0
   -0.9208    0.9417    0.0000 C   0  0  0  0  0  0           0  0  0
    1.5667    0.9625    0.0000 C   0  0  0  0  0  0           0  0  0
   -1.3375    1.6625    0.0000 N   0  0  0  0  0  0           0  0  0
    1.9792    1.6750    0.0000 N   0  0  0  0  0  0           0  0  0
    0.3208    1.0667    0.0000 O   0  0  0  0  0  0           0  0  0
    0.3292   -0.6000    0.0000 O   0  0  0  0  0  0           0  0  0
   -2.9833    0.2083    0.0000 C   0  0  0  0  0  0           0  0  0
   -1.7417   -0.5000    0.0000 C   0  0  0  0  0  0           0  0  0
   -3.3917   -0.5042    0.0000 C   0  0  0  0  0  0           0  0  0
   -2.1542    0.2125    0.0000 C   0  0  0  0  0  0           0  0  0
   -2.9750   -1.2167    0.0000 C   0  0  0  0  0  0           0  0  0
    2.4000   -0.4708    0.0000 C   0  0  0  0  0  0           0  0  0
   -2.1500   -1.2125    0.0000 C   0  0  0  0  0  0           0  0  0
   -3.4042    0.9250    0.0000 O   0  0  0  0  0  0           0  0  0
   -4.2250   -0.5167    0.0000 O   0  0  0  0  0  0           0  0  0
    2.8167   -1.1833    0.0000 C   0  0  0  0  0  0           0  0  0
    2.8167    0.2458    0.0000 C   0  0  0  0  0  0           0  0  0
    3.6417   -1.1792    0.0000 C   0  0  0  0  0  0           0  0  0
    3.6375    0.2583    0.0000 C   0  0  0  0  0  0           0  0  0
    4.0583   -0.4583    0.0000 C   0  0  0  0  0  0           0  0  0
  2  1  1  0     0  0
  3  1  1  0     0  0
  4  2  2  0     0  0
  5  3  2  0     0  0
  6  2  1  0     0  0
  7  3  1  0     0  0
  8  6  3  0     0  0
  9  7  3  0     0  0
 10  1  2  0     0  0
 11  1  2  0     0  0
 12 15  1  0     0  0
 13  4  1  0     0  0
 14 16  1  0     0  0
 15 13  2  0     0  0
 16 18  2  0     0  0
 17  5  1  0     0  0
 18 13  1  0     0  0
 19 12  1  0     0  0
 20 14  1  0     0  0
 21 17  2  0     0  0
 22 17  1  0     0  0
 23 21  1  0     0  0
 24 22  2  0     0  0
 25 24  1  0     0  0
 25 23  2  0     0  0
 14 12  2  0     0  0
M  END
>  <prID>
241

>  <IDDB>
80803

>  <pIC50_HIV_Integrase>
5.920818754

>  <Q>
0.781651978

>  <Activity_Integrase>
Inactive_Integrase

NA
NA
NA
NA
$$$$

  Accelrys05311914332D 1   1.00000     0.00000     0

 15 15  0     0  0            999 V2000
   -1.4833    0.4167    0.0000 C   0  0  0  0  0  0           0  0  0
    1.3833   -0.4167    0.0000 C   0  0  0  0  0  0           0  0  0
   -0.7625    0.8250    0.0000 C   0  0  0  0  0  0           0  0  0
   -1.4833   -0.4125    0.0000 C   0  0  0  0  0  0           0  0  0
    1.3875    1.2417    0.0000 N   0  0  0  0  0  0           0  0  0
    2.8167   -1.2417    0.0000 N   0  0  0  0  0  0           0  0  0
   -0.0542   -0.4125    0.0000 C   0  0  0  0  0  0           0  0  0
    2.1000   -0.8292    0.0000 C   0  0  0  0  0  0           0  0  0
    1.3792    0.4167    0.0000 C   0  0  0  0  0  0           0  0  0
    0.6708   -0.8292    0.0000 C   0  0  0  0  0  0           0  0  0
   -0.7667   -0.8167    0.0000 C   0  0  0  0  0  0           0  0  0
   -0.0542    0.4167    0.0000 C   0  0  0  0  0  0           0  0  0
   -2.2000    0.8375    0.0000 O   0  0  0  0  0  0           0  0  0
   -0.7667    1.6542    0.0000 O   0  0  0  0  0  0           0  0  0
   -2.2000   -0.8208    0.0000 O   0  0  0  0  0  0           0  0  0
  2 10  2  0     0  0
  3  1  2  0     0  0
  4  1  1  0     0  0
  5  9  3  0     0  0
  6  8  3  0     0  0
  7 12  2  0     0  0
  8  2  1  0     0  0
  9  2  1  0     0  0
 10  7  1  0     0  0
 11  4  2  0     0  0
 12  3  1  0     0  0
 13  1  1  0     0  0
 14  3  1  0     0  0
 15  4  1  0     0  0
 11  7  1  0     0  0
M  END
>  <prID>
242

>  <IDDB>
80804

>  <pIC50_HIV_Integrase>
5.301029996

>  <Q>
-0.479075679

>  <Activity_Integrase>
Inactive_Integrase

NA
NA
NA
NA
$$$$

  Accelrys05311914332D 1   1.00000     0.00000     0

 22 23  0     0  0            999 V2000
   -0.4667    0.6000    0.0000 C   0  0  0  0  0  0           0  0  0
    0.2708    1.0250    0.0000 C   0  0  0  0  0  0           0  0  0
   -0.4667   -0.2208    0.0000 C   0  0  0  0  0  0           0  0  0
   -1.1833    1.0167    0.0000 C   0  0  0  0  0  0           0  0  0
   -1.9167    1.3875    0.0000 N   0  0  0  0  0  0           0  0  0
    0.9833    0.6042    0.0000 N   0  0  0  0  0  0           0  0  0
   -2.6000   -0.6375    0.0000 C   0  0  0  0  0  0           0  0  0
    0.2708    1.8833    0.0000 S   0  0  0  0  0  0           0  0  0
   -1.1750   -0.6375    0.0000 C   0  0  0  0  0  0           0  0  0
   -2.6042   -1.4583    0.0000 C   0  0  0  0  0  0           0  0  0
   -1.8958   -0.2292    0.0000 C   0  0  0  0  0  0           0  0  0
   -1.9000   -1.8750    0.0000 C   0  0  0  0  0  0           0  0  0
    1.7000    1.0208    0.0000 C   0  0  0  0  0  0           0  0  0
   -1.1792   -1.4583    0.0000 C   0  0  0  0  0  0           0  0  0
   -3.3167   -0.2167    0.0000 O   0  0  0  0  0  0           0  0  0
   -3.3250   -1.8708    0.0000 O   0  0  0  0  0  0           0  0  0
    2.4167    0.6042    0.0000 C   0  0  0  0  0  0           0  0  0
    2.4083   -0.2250    0.0000 C   0  0  0  0  0  0           0  0  0
    3.1250    1.0167    0.0000 C   0  0  0  0  0  0           0  0  0
    3.1167   -0.6375    0.0000 C   0  0  0  0  0  0           0  0  0
    3.8417    0.5958    0.0000 C   0  0  0  0  0  0           0  0  0
    3.8375   -0.2375    0.0000 C   0  0  0  0  0  0           0  0  0
  2  1  1  0     0  0
  3  1  2  0     0  0
  4  1  1  0     0  0
  5  4  3  0     0  0
  6  2  1  0     0  0
  7 11  1  0     0  0
  8  2  2  0     0  0
  9  3  1  0     0  0
 10 12  1  0     0  0
 11  9  2  0     0  0
 12 14  2  0     0  0
 13  6  1  0     0  0
 14  9  1  0     0  0
 15  7  1  0     0  0
 16 10  1  0     0  0
 17 13  1  0     0  0
 18 17  2  0     0  0
 19 17  1  0     0  0
 20 18  1  0     0  0
 21 19  2  0     0  0
 22 21  1  0     0  0
 10  7  2  0     0  0
 22 20  2  0     0  0
M  END
>  <prID>
243

>  <IDDB>
80805

>  <pIC50_HIV_Integrase>
5

>  <Q>
1.763924091

>  <Activity_Integrase>
Inactive_Integrase

NA
NA
NA
NA
$$$$

  Accelrys05311914332D 1   1.00000     0.00000     0

 22 23  0     0  0            999 V2000
   -0.1833    0.7625    0.0000 C   0  0  0  0  0  0           0  0  0
    0.5583    1.2000    0.0000 C   0  0  0  0  0  0           0  0  0
   -0.1750   -0.0583    0.0000 C   0  0  0  0  0  0           0  0  0
    1.2750    0.7833    0.0000 C   0  0  0  0  0  0           0  0  0
   -0.8958    1.1792    0.0000 C   0  0  0  0  0  0           0  0  0
   -1.6208    1.5583    0.0000 N   0  0  0  0  0  0           0  0  0
    1.2708   -0.0417    0.0000 C   0  0  0  0  0  0           0  0  0
    1.9792   -0.4583    0.0000 C   0  0  0  0  0  0           0  0  0
   -2.3000   -0.4792    0.0000 C   0  0  0  0  0  0           0  0  0
   -0.8833   -0.4750    0.0000 C   0  0  0  0  0  0           0  0  0
    2.7000   -0.0458    0.0000 C   0  0  0  0  0  0           0  0  0
   -2.3000   -1.3000    0.0000 C   0  0  0  0  0  0           0  0  0
   -1.6000   -0.0667    0.0000 C   0  0  0  0  0  0           0  0  0
    0.5542    2.0542    0.0000 O   0  0  0  0  0  0           0  0  0
    1.9792    1.2000    0.0000 C   0  0  0  0  0  0           0  0  0
    2.7000    0.7833    0.0000 C   0  0  0  0  0  0           0  0  0
   -1.5958   -1.7125    0.0000 C   0  0  0  0  0  0           0  0  0
   -0.8750   -1.3000    0.0000 C   0  0  0  0  0  0           0  0  0
    1.9750   -1.2792    0.0000 O   0  0  0  0  0  0           0  0  0
   -3.0208   -0.0667    0.0000 O   0  0  0  0  0  0           0  0  0
    3.4125   -0.4583    0.0000 O   0  0  0  0  0  0           0  0  0
   -3.0208   -1.7208    0.0000 O   0  0  0  0  0  0           0  0  0
  2  1  1  0     0  0
  3  1  2  0     0  0
  4  2  1  0     0  0
  5  1  1  0     0  0
  6  5  3  0     0  0
  7  4  2  0     0  0
  8  7  1  0     0  0
  9 13  1  0     0  0
 10  3  1  0     0  0
 11 16  1  0     0  0
 12 17  1  0     0  0
 13 10  2  0     0  0
 14  2  2  0     0  0
 15  4  1  0     0  0
 16 15  2  0     0  0
 17 18  2  0     0  0
 18 10  1  0     0  0
 19  8  1  0     0  0
 20  9  1  0     0  0
 21 11  1  0     0  0
 22 12  1  0     0  0
 12  9  2  0     0  0
 11  8  2  0     0  0
M  END
>  <prID>
244

>  <IDDB>
80806

>  <pIC50_HIV_Integrase>
6.301029996

>  <Q>
-1.138458561

>  <Activity_Integrase>
Active_Integrase

NA
NA
NA
NA
$$$$

  Accelrys05311914332D 1   1.00000     0.00000     0

 25 26  0     0  0            999 V2000
   -1.1625    0.1708    0.0000 C   0  0  0  0  0  0           0  0  0
   -0.4250    0.6083    0.0000 C   0  0  0  0  0  0           0  0  0
   -1.1583   -0.6500    0.0000 C   0  0  0  0  0  0           0  0  0
   -1.8833    0.5833    0.0000 C   0  0  0  0  0  0           0  0  0
   -2.5750    1.0208    0.0000 N   0  0  0  0  0  0           0  0  0
   -3.2833   -1.0750    0.0000 C   0  0  0  0  0  0           0  0  0
    3.8542    0.5458    0.0000 C   0  0  0  0  0  0           0  0  0
   -1.8625   -1.0667    0.0000 C   0  0  0  0  0  0           0  0  0
   -3.2833   -1.8958    0.0000 C   0  0  0  0  0  0           0  0  0
    3.8667    1.3667    0.0000 C   0  0  0  0  0  0           0  0  0
   -2.5833   -0.6583    0.0000 C   0  0  0  0  0  0           0  0  0
   -0.4292    1.4625    0.0000 O   0  0  0  0  0  0           0  0  0
    3.1375    0.1458    0.0000 C   0  0  0  0  0  0           0  0  0
    0.2917    0.1917    0.0000 N   0  0  0  0  0  0           0  0  0
   -2.5792   -2.3042    0.0000 C   0  0  0  0  0  0           0  0  0
    3.1583    1.7917    0.0000 C   0  0  0  0  0  0           0  0  0
    2.4333    0.5708    0.0000 C   0  0  0  0  0  0           0  0  0
   -1.8583   -1.8917    0.0000 C   0  0  0  0  0  0           0  0  0
   -4.0000   -0.6583    0.0000 O   0  0  0  0  0  0           0  0  0
    4.5583    0.1375    0.0000 O   0  0  0  0  0  0           0  0  0
    2.4375    1.3875    0.0000 C   0  0  0  0  0  0           0  0  0
   -4.0000   -2.3167    0.0000 O   0  0  0  0  0  0           0  0  0
    4.5750    1.7875    0.0000 O   0  0  0  0  0  0           0  0  0
    1.0083    0.5917    0.0000 C   0  0  0  0  0  0           0  0  0
    1.7167    0.1708    0.0000 C   0  0  0  0  0  0           0  0  0
  2  1  1  0     0  0
  3  1  2  0     0  0
  4  1  1  0     0  0
  5  4  3  0     0  0
  6 11  1  0     0  0
  7 13  1  0     0  0
  8  3  1  0     0  0
  9 15  1  0     0  0
 10 16  1  0     0  0
 11  8  2  0     0  0
 12  2  2  0     0  0
 13 17  2  0     0  0
 14  2  1  0     0  0
 15 18  2  0     0  0
 16 21  2  0     0  0
 17 25  1  0     0  0
 18  8  1  0     0  0
 19  6  1  0     0  0
 20  7  1  0     0  0
 21 17  1  0     0  0
 22  9  1  0     0  0
 23 10  1  0     0  0
 24 14  1  0     0  0
 25 24  1  0     0  0
  9  6  2  0     0  0
 10  7  2  0     0  0
M  END
>  <prID>
245

>  <IDDB>
80807

>  <pIC50_HIV_Integrase>
5.568636236

>  <Q>
-2.282655658

>  <Activity_Integrase>
Inactive_Integrase

NA
NA
NA
NA
$$$$

  Accelrys05311914332D 1   1.00000     0.00000     0

 22 23  0     0  0            999 V2000
   -0.2250    1.0000    0.0000 C   0  0  0  0  0  0           0  0  0
    0.4875    1.4125    0.0000 C   0  0  0  0  0  0           0  0  0
   -0.2250    0.1708    0.0000 C   0  0  0  0  0  0           0  0  0
   -0.9417    1.4167    0.0000 C   0  0  0  0  0  0           0  0  0
   -1.6625    1.8292    0.0000 N   0  0  0  0  0  0           0  0  0
    1.2042    1.0000    0.0000 N   0  0  0  0  0  0           0  0  0
   -2.3750   -0.2417    0.0000 C   0  0  0  0  0  0           0  0  0
   -0.9458   -0.2458    0.0000 C   0  0  0  0  0  0           0  0  0
   -2.3750   -1.0708    0.0000 C   0  0  0  0  0  0           0  0  0
   -1.6625    0.1667    0.0000 C   0  0  0  0  0  0           0  0  0
    0.4875    2.2417    0.0000 O   0  0  0  0  0  0           0  0  0
   -1.6625   -1.4833    0.0000 C   0  0  0  0  0  0           0  0  0
    1.2000    0.1708    0.0000 C   0  0  0  0  0  0           0  0  0
   -0.9458   -1.0708    0.0000 C   0  0  0  0  0  0           0  0  0
   -3.1000    0.1667    0.0000 O   0  0  0  0  0  0           0  0  0
   -3.1000   -1.4917    0.0000 O   0  0  0  0  0  0           0  0  0
    1.9167   -0.2417    0.0000 C   0  0  0  0  0  0           0  0  0
    1.9167   -1.0708    0.0000 C   0  0  0  0  0  0           0  0  0
    2.6333    0.1708    0.0000 C   0  0  0  0  0  0           0  0  0
    2.6292   -1.4833    0.0000 C   0  0  0  0  0  0           0  0  0
    3.3458   -0.2375    0.0000 C   0  0  0  0  0  0           0  0  0
    3.3500   -1.0750    0.0000 C   0  0  0  0  0  0           0  0  0
  2  1  1  0     0  0
  3  1  2  0     0  0
  4  1  1  0     0  0
  5  4  3  0     0  0
  6  2  1  0     0  0
  7 10  1  0     0  0
  8  3  1  0     0  0
  9 12  1  0     0  0
 10  8  2  0     0  0
 11  2  2  0     0  0
 12 14  2  0     0  0
 13  6  1  0     0  0
 14  8  1  0     0  0
 15  7  1  0     0  0
 16  9  1  0     0  0
 17 13  1  0     0  0
 18 17  2  0     0  0
 19 17  1  0     0  0
 20 18  1  0     0  0
 21 19  2  0     0  0
 22 21  1  0     0  0
  9  7  2  0     0  0
 22 20  2  0     0  0
M  END
>  <prID>
246

>  <IDDB>
80808

>  <pIC50_HIV_Integrase>
5

>  <Q>
-0.322972017

>  <Activity_Integrase>
Inactive_Integrase

NA
NA
NA
NA
$$$$

  Accelrys05311914332D 1   1.00000     0.00000     0

 24 25  0     0  0            999 V2000
   -1.0583    0.5333    0.0000 C   0  0  0  0  0  0           0  0  0
   -0.3208    0.9667    0.0000 C   0  0  0  0  0  0           0  0  0
   -1.0500   -0.2875    0.0000 C   0  0  0  0  0  0           0  0  0
   -1.7750    0.9458    0.0000 C   0  0  0  0  0  0           0  0  0
   -2.5000    1.3208    0.0000 N   0  0  0  0  0  0           0  0  0
   -3.1792   -0.7167    0.0000 C   0  0  0  0  0  0           0  0  0
   -1.7583   -0.7083    0.0000 C   0  0  0  0  0  0           0  0  0
   -3.1792   -1.5333    0.0000 C   0  0  0  0  0  0           0  0  0
   -2.4792   -0.3000    0.0000 C   0  0  0  0  0  0           0  0  0
   -0.3208    1.8208    0.0000 O   0  0  0  0  0  0           0  0  0
    0.4000    0.5500    0.0000 N   0  0  0  0  0  0           0  0  0
   -2.4708   -1.9417    0.0000 C   0  0  0  0  0  0           0  0  0
   -1.7500   -1.5292    0.0000 C   0  0  0  0  0  0           0  0  0
   -3.8958   -0.3000    0.0000 O   0  0  0  0  0  0           0  0  0
   -3.8958   -1.9542    0.0000 O   0  0  0  0  0  0           0  0  0
    3.2458    0.5417    0.0000 C   0  0  0  0  0  0           0  0  0
    1.1167    0.9500    0.0000 C   0  0  0  0  0  0           0  0  0
    2.5375    0.9500    0.0000 C   0  0  0  0  0  0           0  0  0
    3.2417   -0.2792    0.0000 C   0  0  0  0  0  0           0  0  0
    3.9625    0.9417    0.0000 C   0  0  0  0  0  0           0  0  0
    1.8208    0.5292    0.0000 C   0  0  0  0  0  0           0  0  0
    3.9417   -0.7000    0.0000 C   0  0  0  0  0  0           0  0  0
    4.6750    0.5208    0.0000 C   0  0  0  0  0  0           0  0  0
    4.6583   -0.3042    0.0000 C   0  0  0  0  0  0           0  0  0
  2  1  1  0     0  0
  3  1  2  0     0  0
  4  1  1  0     0  0
  5  4  3  0     0  0
  6  9  1  0     0  0
  7  3  1  0     0  0
  8 12  1  0     0  0
  9  7  2  0     0  0
 10  2  2  0     0  0
 11  2  1  0     0  0
 12 13  2  0     0  0
 13  7  1  0     0  0
 14  6  1  0     0  0
 15  8  1  0     0  0
 16 18  1  0     0  0
 17 11  1  0     0  0
 18 21  1  0     0  0
 19 16  1  0     0  0
 20 16  2  0     0  0
 21 17  1  0     0  0
 22 19  2  0     0  0
 23 20  1  0     0  0
 24 23  2  0     0  0
  8  6  2  0     0  0
 24 22  1  0     0  0
M  END
>  <prID>
247

>  <IDDB>
80809

>  <pIC50_HIV_Integrase>
5

>  <Q>
-0.878432247

>  <Activity_Integrase>
Inactive_Integrase

NA
NA
NA
NA
$$$$

  Accelrys05311914332D 1   1.00000     0.00000     0

 25 26  0     0  0            999 V2000
   -1.3458    0.6792    0.0000 C   0  0  0  0  0  0           0  0  0
   -0.6333    1.0917    0.0000 C   0  0  0  0  0  0           0  0  0
   -1.3458   -0.1500    0.0000 C   0  0  0  0  0  0           0  0  0
   -2.0625    1.0958    0.0000 C   0  0  0  0  0  0           0  0  0
   -2.7833    1.5083    0.0000 N   0  0  0  0  0  0           0  0  0
   -3.5000   -0.5667    0.0000 C   0  0  0  0  0  0           0  0  0
   -2.0667   -0.5667    0.0000 C   0  0  0  0  0  0           0  0  0
   -3.4958   -1.3917    0.0000 C   0  0  0  0  0  0           0  0  0
   -2.7792   -0.1583    0.0000 C   0  0  0  0  0  0           0  0  0
   -0.6375    1.9208    0.0000 O   0  0  0  0  0  0           0  0  0
    0.0833    0.6833    0.0000 N   0  0  0  0  0  0           0  0  0
   -2.7833   -1.8042    0.0000 C   0  0  0  0  0  0           0  0  0
   -2.0667   -1.3917    0.0000 C   0  0  0  0  0  0           0  0  0
   -4.2167   -0.1583    0.0000 O   0  0  0  0  0  0           0  0  0
   -4.2167   -1.8125    0.0000 O   0  0  0  0  0  0           0  0  0
    3.6667    0.2708    0.0000 C   0  0  0  0  0  0           0  0  0
    0.8000    0.2667    0.0000 C   0  0  0  0  0  0           0  0  0
    2.9458    0.6833    0.0000 C   0  0  0  0  0  0           0  0  0
    3.6667   -0.5542    0.0000 C   0  0  0  0  0  0           0  0  0
    4.3792    0.6833    0.0000 C   0  0  0  0  0  0           0  0  0
    1.5167    0.6833    0.0000 C   0  0  0  0  0  0           0  0  0
    2.2333    0.2667    0.0000 C   0  0  0  0  0  0           0  0  0
    4.3875   -0.9667    0.0000 C   0  0  0  0  0  0           0  0  0
    5.1000    0.2750    0.0000 C   0  0  0  0  0  0           0  0  0
    5.1000   -0.5500    0.0000 C   0  0  0  0  0  0           0  0  0
  2  1  1  0     0  0
  3  1  2  0     0  0
  4  1  1  0     0  0
  5  4  3  0     0  0
  6  9  1  0     0  0
  7  3  1  0     0  0
  8 12  1  0     0  0
  9  7  2  0     0  0
 10  2  2  0     0  0
 11  2  1  0     0  0
 12 13  2  0     0  0
 13  7  1  0     0  0
 14  6  1  0     0  0
 15  8  1  0     0  0
 16 18  1  0     0  0
 17 11  1  0     0  0
 18 22  1  0     0  0
 19 16  2  0     0  0
 20 16  1  0     0  0
 21 17  1  0     0  0
 22 21  1  0     0  0
 23 19  1  0     0  0
 24 20  2  0     0  0
 25 24  1  0     0  0
  8  6  2  0     0  0
 25 23  2  0     0  0
M  END
>  <prID>
248

>  <IDDB>
80810

>  <pIC50_HIV_Integrase>
5

>  <Q>
-1.136478073

>  <Activity_Integrase>
Inactive_Integrase

NA
NA
NA
NA
$$$$

  Accelrys05311914332D 1   1.00000     0.00000     0

 16 16  0     0  0            999 V2000
    1.3042    0.0458    0.0000 C   0  0  0  0  0  0           0  0  0
    0.7542   -0.5750    0.0000 C   0  0  0  0  0  0           0  0  0
   -1.6833   -0.0542    0.0000 C   0  0  0  0  0  0           0  0  0
    2.1125   -0.1250    0.0000 C   0  0  0  0  0  0           0  0  0
    1.0583    0.8333    0.0000 C   0  0  0  0  0  0           0  0  0
   -1.1208    0.5625    0.0000 C   0  0  0  0  0  0           0  0  0
   -1.4292   -0.8417    0.0000 C   0  0  0  0  0  0           0  0  0
   -0.0667   -0.4000    0.0000 C   0  0  0  0  0  0           0  0  0
    0.8000    1.6292    0.0000 N   0  0  0  0  0  0           0  0  0
   -0.3167    0.3833    0.0000 C   0  0  0  0  0  0           0  0  0
   -0.6208   -1.0167    0.0000 C   0  0  0  0  0  0           0  0  0
    2.6708    0.4875    0.0000 O   0  0  0  0  0  0           0  0  0
    2.3625   -0.9167    0.0000 N   0  0  0  0  0  0           0  0  0
   -2.4958    0.1208    0.0000 O   0  0  0  0  0  0           0  0  0
   -1.9833   -1.4500    0.0000 O   0  0  0  0  0  0           0  0  0
   -1.3708    1.3542    0.0000 O   0  0  0  0  0  0           0  0  0
  2  1  2  0     0  0
  3  6  2  0     0  0
  4  1  1  0     0  0
  5  1  1  0     0  0
  6 10  1  0     0  0
  7 11  2  0     0  0
  8  2  1  0     0  0
  9  5  3  0     0  0
 10  8  2  0     0  0
 11  8  1  0     0  0
 12  4  2  0     0  0
 13  4  1  0     0  0
 14  3  1  0     0  0
 15  7  1  0     0  0
 16  6  1  0     0  0
  3  7  1  0     0  0
M  END
>  <prID>
249

>  <IDDB>
80811

>  <pIC50_HIV_Integrase>
5.301029996

>  <Q>
-2.424495112

>  <Activity_Integrase>
Inactive_Integrase

NA
NA
NA
NA
$$$$

  Accelrys05311914332D 1   1.00000     0.00000     0

 25 26  0     0  0            999 V2000
   -0.9417    0.4667    0.0000 C   0  0  0  0  0  0           0  0  0
   -0.9375   -0.3583    0.0000 C   0  0  0  0  0  0           0  0  0
   -3.0917   -1.6042    0.0000 C   0  0  0  0  0  0           0  0  0
   -0.2250    0.8833    0.0000 C   0  0  0  0  0  0           0  0  0
   -2.3750   -2.0167    0.0000 C   0  0  0  0  0  0           0  0  0
   -1.6583    0.8792    0.0000 C   0  0  0  0  0  0           0  0  0
   -3.0917   -0.7792    0.0000 C   0  0  0  0  0  0           0  0  0
   -1.6625   -0.7792    0.0000 C   0  0  0  0  0  0           0  0  0
   -2.3792    1.2958    0.0000 N   0  0  0  0  0  0           0  0  0
   -1.6583   -1.6000    0.0000 C   0  0  0  0  0  0           0  0  0
   -2.3750   -0.3667    0.0000 C   0  0  0  0  0  0           0  0  0
   -0.2250    1.7083    0.0000 O   0  0  0  0  0  0           0  0  0
    0.4875    0.4708    0.0000 N   0  0  0  0  0  0           0  0  0
   -2.3750   -2.8375    0.0000 I   0  0  0  0  0  0           0  0  0
   -3.8125   -2.0250    0.0000 O   0  0  0  0  0  0           0  0  0
   -3.8125   -0.3667    0.0000 O   0  0  0  0  0  0           0  0  0
    3.3500    0.6000    0.0000 C   0  0  0  0  0  0           0  0  0
    1.2250    0.0917    0.0000 C   0  0  0  0  0  0           0  0  0
    2.6583    0.1583    0.0000 C   0  0  0  0  0  0           0  0  0
    4.0875    0.2208    0.0000 C   0  0  0  0  0  0           0  0  0
    3.3125    1.4250    0.0000 C   0  0  0  0  0  0           0  0  0
    1.9167    0.5375    0.0000 C   0  0  0  0  0  0           0  0  0
    4.7792    0.6667    0.0000 C   0  0  0  0  0  0           0  0  0
    4.0042    1.8792    0.0000 C   0  0  0  0  0  0           0  0  0
    4.7417    1.5000    0.0000 C   0  0  0  0  0  0           0  0  0
  2  1  2  0     0  0
  3  5  1  0     0  0
  4  1  1  0     0  0
  5 10  2  0     0  0
  6  1  1  0     0  0
  7 11  1  0     0  0
  8  2  1  0     0  0
  9  6  3  0     0  0
 10  8  1  0     0  0
 11  8  2  0     0  0
 12  4  2  0     0  0
 13  4  1  0     0  0
 14  5  1  0     0  0
 15  3  1  0     0  0
 16  7  1  0     0  0
 17 19  1  0     0  0
 18 13  1  0     0  0
 19 22  1  0     0  0
 20 17  1  0     0  0
 21 17  2  0     0  0
 22 18  1  0     0  0
 23 20  2  0     0  0
 24 21  1  0     0  0
 25 24  2  0     0  0
  3  7  2  0     0  0
 25 23  1  0     0  0
M  END
>  <prID>
250

>  <IDDB>
80812

>  <pIC50_HIV_Integrase>
5

>  <Q>
0.576457012

>  <Activity_Integrase>
Inactive_Integrase

NA
NA
NA
NA
$$$$

  Accelrys05311914332D 1   1.00000     0.00000     0

 24 25  0     0  0            999 V2000
   -0.8042    0.4042    0.0000 C   0  0  0  0  0  0           0  0  0
   -0.0708    0.8417    0.0000 C   0  0  0  0  0  0           0  0  0
   -0.8000   -0.4167    0.0000 C   0  0  0  0  0  0           0  0  0
   -1.5208    0.8167    0.0000 C   0  0  0  0  0  0           0  0  0
    0.6458    0.4250    0.0000 N   0  0  0  0  0  0           0  0  0
   -2.3375    1.1875    0.0000 N   0  0  0  0  0  0           0  0  0
    2.7000    1.1208    0.0000 C   0  0  0  0  0  0           0  0  0
    1.8792    1.1208    0.0000 C   0  0  0  0  0  0           0  0  0
   -2.9292   -0.8417    0.0000 C   0  0  0  0  0  0           0  0  0
    1.4708    0.4208    0.0000 C   0  0  0  0  0  0           0  0  0
   -1.5042   -0.8333    0.0000 C   0  0  0  0  0  0           0  0  0
   -2.9292   -1.6583    0.0000 C   0  0  0  0  0  0           0  0  0
   -0.0750    1.6958    0.0000 O   0  0  0  0  0  0           0  0  0
    3.1125    0.4000    0.0000 C   0  0  0  0  0  0           0  0  0
   -2.2250   -0.4250    0.0000 C   0  0  0  0  0  0           0  0  0
   -2.2208   -2.0708    0.0000 C   0  0  0  0  0  0           0  0  0
    2.6917   -0.3083    0.0000 C   0  0  0  0  0  0           0  0  0
    1.8708   -0.3000    0.0000 C   0  0  0  0  0  0           0  0  0
   -1.5000   -1.6583    0.0000 C   0  0  0  0  0  0           0  0  0
    3.1167    1.8208    0.0000 O   0  0  0  0  0  0           0  0  0
   -3.6458   -0.4250    0.0000 O   0  0  0  0  0  0           0  0  0
   -3.6458   -2.0792    0.0000 O   0  0  0  0  0  0           0  0  0
    3.9375    0.4042    0.0000 O   0  0  0  0  0  0           0  0  0
    4.7583    0.4042    0.0000 C   0  0  0  0  0  0           0  0  0
  2  1  1  0     0  0
  3  1  2  0     0  0
  4  1  1  0     0  0
  5  2  1  0     0  0
  6  4  3  0     0  0
  7  8  2  0     0  0
  8 10  1  0     0  0
  9 15  1  0     0  0
 10  5  1  0     0  0
 11  3  1  0     0  0
 12 16  1  0     0  0
 13  2  2  0     0  0
 14 17  2  0     0  0
 15 11  2  0     0  0
 16 19  2  0     0  0
 17 18  1  0     0  0
 18 10  2  0     0  0
 19 11  1  0     0  0
 20  7  1  0     0  0
 21  9  1  0     0  0
 22 12  1  0     0  0
 23 14  1  0     0  0
 24 23  1  0     0  0
 12  9  2  0     0  0
 14  7  1  0     0  0
M  END
>  <prID>
251

>  <IDDB>
80814

>  <pIC50_HIV_Integrase>
5

>  <Q>
-1.424533688

>  <Activity_Integrase>
Inactive_Integrase

NA
NA
NA
NA
$$$$

  Accelrys05311914332D 1   1.00000     0.00000     0

 24 25  0     0  0            999 V2000
   -0.7208    0.2542    0.0000 C   0  0  0  0  0  0           0  0  0
    0.0167    0.6917    0.0000 C   0  0  0  0  0  0           0  0  0
   -0.7125   -0.5667    0.0000 C   0  0  0  0  0  0           0  0  0
   -1.4375    0.6625    0.0000 C   0  0  0  0  0  0           0  0  0
    0.7375    0.2750    0.0000 N   0  0  0  0  0  0           0  0  0
    3.1917    1.6833    0.0000 C   0  0  0  0  0  0           0  0  0
   -2.2375    1.0917    0.0000 N   0  0  0  0  0  0           0  0  0
    2.7875    0.9667    0.0000 C   0  0  0  0  0  0           0  0  0
   -2.8417   -0.9917    0.0000 C   0  0  0  0  0  0           0  0  0
   -1.4208   -0.9833    0.0000 C   0  0  0  0  0  0           0  0  0
    1.5583    0.2667    0.0000 C   0  0  0  0  0  0           0  0  0
   -2.8417   -1.8125    0.0000 C   0  0  0  0  0  0           0  0  0
    0.0125    1.5417    0.0000 O   0  0  0  0  0  0           0  0  0
   -2.1417   -0.5792    0.0000 C   0  0  0  0  0  0           0  0  0
    1.9667    0.9708    0.0000 C   0  0  0  0  0  0           0  0  0
    2.7792    2.4000    0.0000 O   0  0  0  0  0  0           0  0  0
   -2.1333   -2.2208    0.0000 C   0  0  0  0  0  0           0  0  0
    4.0167    1.6833    0.0000 O   0  0  0  0  0  0           0  0  0
   -1.4167   -1.8083    0.0000 C   0  0  0  0  0  0           0  0  0
   -3.5583   -0.5792    0.0000 O   0  0  0  0  0  0           0  0  0
   -3.5583   -2.2333    0.0000 O   0  0  0  0  0  0           0  0  0
    3.2000    0.2500    0.0000 C   0  0  0  0  0  0           0  0  0
    2.7792   -0.4583    0.0000 C   0  0  0  0  0  0           0  0  0
    1.9583   -0.4542    0.0000 C   0  0  0  0  0  0           0  0  0
  2  1  1  0     0  0
  3  1  2  0     0  0
  4  1  1  0     0  0
  5  2  1  0     0  0
  6  8  1  0     0  0
  7  4  3  0     0  0
  8 15  2  0     0  0
  9 14  1  0     0  0
 10  3  1  0     0  0
 11  5  1  0     0  0
 12 17  1  0     0  0
 13  2  2  0     0  0
 14 10  2  0     0  0
 15 11  1  0     0  0
 16  6  2  0     0  0
 17 19  2  0     0  0
 18  6  1  0     0  0
 19 10  1  0     0  0
 20  9  1  0     0  0
 21 12  1  0     0  0
 22 23  2  0     0  0
 23 24  1  0     0  0
 24 11  2  0     0  0
 12  9  2  0     0  0
 22  8  1  0     0  0
M  END
>  <prID>
252

>  <IDDB>
80815

>  <pIC50_HIV_Integrase>
5.301029996

>  <Q>
-1.26984835

>  <Activity_Integrase>
Inactive_Integrase

NA
NA
NA
NA
$$$$

  Accelrys05311914332D 1   1.00000     0.00000     0

 48 54  0     0  0            999 V2000
   -1.3417   -0.2792    0.0000 S   0  0  3  0  0  0           0  0  0
    2.3125    1.0417    0.0000 C   0  0  0  0  0  0           0  0  0
    3.5250   -0.5667    0.0000 C   0  0  0  0  0  0           0  0  0
    2.8792    1.3750    0.0000 C   0  0  0  0  0  0           0  0  0
    4.0167   -1.0000    0.0000 C   0  0  0  0  0  0           0  0  0
    2.3083   -0.2625    0.0000 C   0  0  3  0  0  0           0  0  0
    2.3042    0.3917    0.0000 S   0  0  0  0  0  0           0  0  0
    2.8750   -0.5875    0.0000 S   0  0  0  0  0  0           0  0  0
    2.8792    2.0333    0.0000 C   0  0  0  0  0  0           0  0  0
    4.6417   -0.7958    0.0000 C   0  0  0  0  0  0           0  0  0
    3.5042    2.2375    0.0000 N   0  0  0  0  0  0           0  0  0
    5.0333   -1.3250    0.0000 N   0  0  0  0  0  0           0  0  0
    1.7417   -0.5917    0.0000 C   0  0  0  0  0  0           0  0  0
   -2.0000   -0.2708    0.0000 N   0  0  0  0  0  0           0  0  0
    3.6583    0.0750    0.0000 N   0  0  0  0  0  0           0  0  0
    1.7458    1.3708    0.0000 N   0  0  0  0  0  0           0  0  0
    3.5042    1.1708    0.0000 N   0  0  0  0  0  0           0  0  0
    4.0167   -1.6583    0.0000 N   0  0  0  0  0  0           0  0  0
    4.7750   -0.1542    0.0000 N   0  0  0  0  0  0           0  0  0
    2.3125    2.3583    0.0000 N   0  0  0  0  0  0           0  0  0
    4.6458   -1.8583    0.0000 C   0  0  0  0  0  0           0  0  0
    3.8958    1.7000    0.0000 C   0  0  0  0  0  0           0  0  0
   -0.6917   -0.2750    0.0000 C   0  0  0  0  0  0           0  0  0
    1.1792   -0.2667    0.0000 N   0  0  0  0  0  0           0  0  0
   -4.6208   -0.2083    0.0000 N   0  0  0  0  0  0           0  0  0
   -5.2792   -0.1917    0.0000 N   0  0  0  0  0  0           0  0  0
   -1.3583    0.4250    0.0000 O   0  0  0  0  0  0           0  0  0
   -1.3542   -0.9833    0.0000 O   0  0  0  0  0  0           0  0  0
    4.2833    0.2833    0.0000 C   0  0  0  0  0  0           0  0  0
    1.7458    2.0292    0.0000 C   0  0  0  0  0  0           0  0  0
    1.7375   -1.2458    0.0000 O   0  0  0  0  0  0           0  0  0
   -0.3708    0.2917    0.0000 C   0  0  0  0  0  0           0  0  0
   -0.3625   -0.8375    0.0000 C   0  0  0  0  0  0           0  0  0
   -2.6625   -0.2583    0.0000 C   0  0  0  0  0  0           0  0  0
    0.6125   -0.2708    0.0000 C   0  0  0  0  0  0           0  0  0
   -3.9708   -0.2375    0.0000 C   0  0  0  0  0  0           0  0  0
   -5.9333   -0.1750    0.0000 C   0  0  0  0  0  0           0  0  0
    0.2792    0.2958    0.0000 C   0  0  0  0  0  0           0  0  0
    0.2875   -0.8375    0.0000 C   0  0  0  0  0  0           0  0  0
   -3.0000   -0.8167    0.0000 C   0  0  0  0  0  0           0  0  0
   -2.9792    0.3208    0.0000 C   0  0  0  0  0  0           0  0  0
   -3.6542   -0.8083    0.0000 C   0  0  0  0  0  0           0  0  0
   -3.6375    0.3250    0.0000 C   0  0  0  0  0  0           0  0  0
   -6.2500   -0.7333    0.0000 C   0  0  0  0  0  0           0  0  0
   -6.2583    0.3917    0.0000 C   0  0  0  0  0  0           0  0  0
   -6.9125   -0.7417    0.0000 C   0  0  0  0  0  0           0  0  0
   -6.9125    0.3917    0.0000 C   0  0  0  0  0  0           0  0  0
   -7.2375   -0.1750    0.0000 C   0  0  0  0  0  0           0  0  0
  2  7  1  0     0  0
  3  8  1  0     0  0
  4  2  2  0     0  0
  5  3  2  0     0  0
  6 13  1  0     0  0
  7  6  1  0     0  0
  8  6  1  0     0  0
  9  4  1  0     0  0
 10  5  1  0     0  0
 11  9  1  0     0  0
 12 10  1  0     0  0
 13 24  1  0     0  0
 14  1  1  0     0  0
 15  3  1  0     0  0
 16  2  1  0     0  0
 17  4  1  0     0  0
 18  5  1  0     0  0
 19 29  1  0     0  0
 20 30  1  0     0  0
 21 18  1  0     0  0
 22 17  1  0     0  0
 23  1  1  0     0  0
 24 35  1  0     0  0
 25 36  1  0     0  0
 26 25  2  0     0  0
 27  1  2  0     0  0
 28  1  2  0     0  0
 29 15  2  0     0  0
 30 16  2  0     0  0
 31 13  2  0     0  0
 32 23  1  0     0  0
 33 23  2  0     0  0
 34 14  1  0     0  0
 35 38  1  0     0  0
 36 43  2  0     0  0
 37 26  1  0     0  0
 38 32  2  0     0  0
 39 33  1  0     0  0
 40 34  1  0     0  0
 41 34  2  0     0  0
 42 40  2  0     0  0
 43 41  1  0     0  0
 44 37  1  0     0  0
 45 37  2  0     0  0
 46 44  2  0     0  0
 47 45  1  0     0  0
 48 47  2  0     0  0
 39 35  2  0     0  0
 36 42  1  0     0  0
 48 46  1  0     0  0
 20  9  2  0     0  0
 22 11  2  0     0  0
 19 10  2  0     0  0
 21 12  2  0     0  0
M  END
>  <prID>
253

>  <IDDB>
81137

>  <pIC50_HIV_Integrase>
3.950781977

>  <Q>
-0.47957049

>  <Activity_Integrase>
Inactive_Integrase

NA
NA
NA
NA
$$$$

  Accelrys05311914332D 1   1.00000     0.00000     0

 46 47  0     0  0            999 V2000
   -0.6833    0.5708    0.0000 C   0  0  2  0  0  0           0  0  0
    0.4208    0.5625    0.0000 C   0  0  2  0  0  0           0  0  0
   -0.9833    1.2500    0.0000 C   0  0  0  0  0  0           0  0  0
    0.7458    1.3042    0.0000 C   0  0  0  0  0  0           0  0  0
   -4.8667   -0.4250    0.0000 C   0  0  0  0  0  0           0  0  0
    4.9042   -0.4167    0.0000 C   0  0  0  0  0  0           0  0  0
   -1.3792   -0.3750    0.0000 O   0  0  0  0  0  0           0  0  0
    1.3167   -0.2750    0.0000 O   0  0  0  0  0  0           0  0  0
   -4.8833    0.2208    0.0000 C   0  0  0  0  0  0           0  0  0
    4.9292    0.2208    0.0000 C   0  0  0  0  0  0           0  0  0
   -2.0833   -0.8083    0.0000 C   0  0  0  0  0  0           0  0  0
    1.9958   -0.7792    0.0000 C   0  0  0  0  0  0           0  0  0
   -5.4625   -0.6833    0.0000 O   0  0  0  0  0  0           0  0  0
    5.5542   -0.7583    0.0000 O   0  0  0  0  0  0           0  0  0
   -5.4583    0.4833    0.0000 O   0  0  0  0  0  0           0  0  0
    5.5750    0.5583    0.0000 O   0  0  0  0  0  0           0  0  0
   -2.7042   -0.4375    0.0000 C   0  0  0  0  0  0           0  0  0
    2.6500   -0.3542    0.0000 C   0  0  0  0  0  0           0  0  0
   -5.4667   -1.3333    0.0000 C   0  0  0  0  0  0           0  0  0
    5.5667   -1.4958    0.0000 C   0  0  0  0  0  0           0  0  0
   -5.4625    1.1083    0.0000 C   0  0  0  0  0  0           0  0  0
    5.6000    1.2917    0.0000 C   0  0  0  0  0  0           0  0  0
   -3.2708   -0.7333    0.0000 C   0  0  0  0  0  0           0  0  0
    3.1958   -0.6875    0.0000 C   0  0  0  0  0  0           0  0  0
   -4.3250   -0.7167    0.0000 C   0  0  0  0  0  0           0  0  0
    4.3333   -0.7292    0.0000 C   0  0  0  0  0  0           0  0  0
    1.4333    1.3042    0.0000 O   0  0  0  0  0  0           0  0  0
   -1.5417    1.2917    0.0000 O   0  0  0  0  0  0           0  0  0
   -2.0833   -1.6708    0.0000 O   0  0  0  0  0  0           0  0  0
    2.0000   -1.4917    0.0000 O   0  0  0  0  0  0           0  0  0
   -4.9083   -1.6500    0.0000 O   0  0  0  0  0  0           0  0  0
   -4.9208    1.4250    0.0000 O   0  0  0  0  0  0           0  0  0
    4.9292   -1.8583    0.0000 O   0  0  0  0  0  0           0  0  0
    4.9583    1.6583    0.0000 O   0  0  0  0  0  0           0  0  0
    4.3833    0.5792    0.0000 C   0  0  0  0  0  0           0  0  0
   -4.3625    0.5458    0.0000 C   0  0  0  0  0  0           0  0  0
   -3.7625   -0.4042    0.0000 C   0  0  0  0  0  0           0  0  0
    3.7792   -0.4167    0.0000 C   0  0  0  0  0  0           0  0  0
    0.5500    2.0750    0.0000 O   0  0  0  0  0  0           0  0  0
   -0.7625    2.0750    0.0000 O   0  0  0  0  0  0           0  0  0
    3.8083    0.2625    0.0000 C   0  0  0  0  0  0           0  0  0
   -3.7750    0.2417    0.0000 C   0  0  0  0  0  0           0  0  0
    6.2083   -1.8417    0.0000 C   0  0  0  0  0  0           0  0  0
   -6.0208   -1.6542    0.0000 C   0  0  0  0  0  0           0  0  0
    6.2500    1.6375    0.0000 C   0  0  0  0  0  0           0  0  0
   -6.0000    1.4208    0.0000 C   0  0  0  0  0  0           0  0  0
  2  1  1  0     0  0
  3  1  1  0     0  0
  4  2  1  0     0  0
  5 25  2  0     0  0
  6 26  1  0     0  0
  1  7  1  1     0  0
  2  8  1  6     0  0
  9 36  2  0     0  0
 10 35  1  0     0  0
 11  7  1  0     0  0
 12  8  1  0     0  0
 13  5  1  0     0  0
 14  6  1  0     0  0
 15  9  1  0     0  0
 16 10  1  0     0  0
 17 11  1  0     0  0
 18 12  1  0     0  0
 19 13  1  0     0  0
 20 14  1  0     0  0
 21 15  1  0     0  0
 22 16  1  0     0  0
 23 17  2  0     0  0
 24 18  2  0     0  0
 25 37  1  0     0  0
 26 38  2  0     0  0
 27  4  2  0     0  0
 28  3  2  0     0  0
 29 11  2  0     0  0
 30 12  2  0     0  0
 31 19  2  0     0  0
 32 21  2  0     0  0
 33 20  2  0     0  0
 34 22  2  0     0  0
 35 41  2  0     0  0
 36 42  1  0     0  0
 37 23  1  0     0  0
 38 24  1  0     0  0
 39  4  1  0     0  0
 40  3  1  0     0  0
 41 38  1  0     0  0
 42 37  2  0     0  0
 43 20  1  0     0  0
 44 19  1  0     0  0
 45 22  1  0     0  0
 46 21  1  0     0  0
  9  5  1  0     0  0
 10  6  2  0     0  0
M  END
>  <prID>
254

>  <IDDB>
81408

>  <pIC50_HIV_Integrase>
5.2724252395

>  <Q>
-4.400684891

>  <Activity_Integrase>
Inactive_Integrase

NA
NA
NA
NA
$$$$

  Accelrys05311914332D 1   1.00000     0.00000     0

 40 41  0     0  0            999 V2000
   -4.8833   -0.1958    0.0000 C   0  0  0  0  0  0           0  0  0
    4.8958   -0.1875    0.0000 C   0  0  0  0  0  0           0  0  0
   -4.9042    0.4542    0.0000 C   0  0  0  0  0  0           0  0  0
    4.9167    0.4542    0.0000 C   0  0  0  0  0  0           0  0  0
   -5.4833   -0.4583    0.0000 O   0  0  0  0  0  0           0  0  0
    5.5458   -0.5250    0.0000 O   0  0  0  0  0  0           0  0  0
   -2.0958   -0.5750    0.0000 C   0  0  0  0  0  0           0  0  0
   -5.4792    0.7208    0.0000 O   0  0  0  0  0  0           0  0  0
    5.5583    0.7833    0.0000 O   0  0  0  0  0  0           0  0  0
   -2.7208   -0.2000    0.0000 C   0  0  0  0  0  0           0  0  0
    2.6375   -0.1167    0.0000 C   0  0  0  0  0  0           0  0  0
    1.9792   -0.5458    0.0000 C   0  0  0  0  0  0           0  0  0
   -5.4833   -1.1000    0.0000 C   0  0  0  0  0  0           0  0  0
    5.5583   -1.2625    0.0000 C   0  0  0  0  0  0           0  0  0
   -5.4833    1.3375    0.0000 C   0  0  0  0  0  0           0  0  0
    5.5875    1.5250    0.0000 C   0  0  0  0  0  0           0  0  0
   -3.2875   -0.5000    0.0000 C   0  0  0  0  0  0           0  0  0
    3.1833   -0.4583    0.0000 C   0  0  0  0  0  0           0  0  0
   -4.3417   -0.4833    0.0000 C   0  0  0  0  0  0           0  0  0
    4.3167   -0.4958    0.0000 C   0  0  0  0  0  0           0  0  0
   -2.0958   -1.4375    0.0000 O   0  0  0  0  0  0           0  0  0
    1.9833   -1.2625    0.0000 O   0  0  0  0  0  0           0  0  0
   -4.9292   -1.4167    0.0000 O   0  0  0  0  0  0           0  0  0
   -4.9417    1.6542    0.0000 O   0  0  0  0  0  0           0  0  0
    4.9167   -1.6250    0.0000 O   0  0  0  0  0  0           0  0  0
    4.9500    1.8917    0.0000 O   0  0  0  0  0  0           0  0  0
    4.3750    0.8125    0.0000 C   0  0  0  0  0  0           0  0  0
   -4.3792    0.7833    0.0000 C   0  0  0  0  0  0           0  0  0
   -3.7833   -0.1708    0.0000 C   0  0  0  0  0  0           0  0  0
    3.7667   -0.1833    0.0000 C   0  0  0  0  0  0           0  0  0
   -1.4000   -0.1375    0.0000 N   0  0  0  0  0  0           0  0  0
    3.7958    0.4958    0.0000 C   0  0  0  0  0  0           0  0  0
   -3.7917    0.4708    0.0000 C   0  0  0  0  0  0           0  0  0
    1.3083   -0.0417    0.0000 O   0  0  0  0  0  0           0  0  0
    6.1958   -1.6125    0.0000 C   0  0  0  0  0  0           0  0  0
   -6.0250   -1.4208    0.0000 C   0  0  0  0  0  0           0  0  0
    6.2458    1.8708    0.0000 C   0  0  0  0  0  0           0  0  0
   -6.0042    1.6542    0.0000 C   0  0  0  0  0  0           0  0  0
   -0.7000    0.8042    0.0000 C   0  0  0  0  0  0           0  0  0
    0.4125    0.7958    0.0000 C   0  0  0  0  0  0           0  0  0
  2 20  1  0     0  0
  3  1  1  0     0  0
  4 27  1  0     0  0
  5  1  1  0     0  0
  6  2  1  0     0  0
  7 10  1  0     0  0
  8  3  1  0     0  0
  9  4  1  0     0  0
 10 17  2  0     0  0
 11 12  1  0     0  0
 12 34  1  0     0  0
 13  5  1  0     0  0
 14  6  1  0     0  0
 15  8  1  0     0  0
 16  9  1  0     0  0
 17 29  1  0     0  0
 18 11  2  0     0  0
 19  1  2  0     0  0
 20 30  2  0     0  0
 21  7  2  0     0  0
 22 12  2  0     0  0
 23 13  2  0     0  0
 24 15  2  0     0  0
 25 14  2  0     0  0
 26 16  2  0     0  0
 27 32  2  0     0  0
 28  3  2  0     0  0
 29 19  1  0     0  0
 30 18  1  0     0  0
 31  7  1  0     0  0
 32 30  1  0     0  0
 33 29  2  0     0  0
 34 40  1  0     0  0
 35 14  1  0     0  0
 36 13  1  0     0  0
 37 16  1  0     0  0
 38 15  1  0     0  0
 39 31  1  0     0  0
 40 39  1  0     0  0
 33 28  1  0     0  0
  4  2  2  0     0  0
M  END
>  <prID>
255

>  <IDDB>
81414

>  <pIC50_HIV_Integrase>
4

>  <Q>
-2.771719531

>  <Activity_Integrase>
Inactive_Integrase

NA
NA
NA
NA
$$$$

  Accelrys05311914332D 1   1.00000     0.00000     0

 44 45  0     0  0            999 V2000
    0.3125    0.4417    0.0000 C   0  0  3  0  0  0           0  0  0
    4.8167   -0.0125    0.0000 C   0  0  0  0  0  0           0  0  0
   -4.8375   -0.0583    0.0000 C   0  0  0  0  0  0           0  0  0
    0.3083    1.1917    0.0000 C   0  0  0  0  0  0           0  0  0
    4.8167   -0.7625    0.0000 C   0  0  0  0  0  0           0  0  0
   -4.8375   -0.8125    0.0000 C   0  0  0  0  0  0           0  0  0
    1.5667    0.3708    0.0000 C   0  0  0  0  0  0           0  0  0
    0.9167    0.0000    0.0000 O   0  0  0  0  0  0           0  0  0
    5.4708    0.3667    0.0000 O   0  0  0  0  0  0           0  0  0
   -5.4917    0.3208    0.0000 O   0  0  0  0  0  0           0  0  0
   -1.5917    0.3250    0.0000 C   0  0  0  0  0  0           0  0  0
    5.4708   -1.1375    0.0000 O   0  0  0  0  0  0           0  0  0
   -5.4917   -1.1792    0.0000 O   0  0  0  0  0  0           0  0  0
    2.2167   -0.0042    0.0000 C   0  0  0  0  0  0           0  0  0
   -2.2417   -0.0500    0.0000 C   0  0  0  0  0  0           0  0  0
    5.4750    1.1208    0.0000 C   0  0  0  0  0  0           0  0  0
   -5.4958    1.0750    0.0000 C   0  0  0  0  0  0           0  0  0
    5.4708   -1.8833    0.0000 C   0  0  0  0  0  0           0  0  0
   -5.4917   -1.9292    0.0000 C   0  0  0  0  0  0           0  0  0
    2.8667    0.3667    0.0000 C   0  0  0  0  0  0           0  0  0
   -2.8875    0.3208    0.0000 C   0  0  0  0  0  0           0  0  0
    4.1667    0.3625    0.0000 C   0  0  0  0  0  0           0  0  0
   -4.1875    0.3208    0.0000 C   0  0  0  0  0  0           0  0  0
   -0.4375    0.4417    0.0000 C   0  0  0  0  0  0           0  0  0
    0.8375    1.7250    0.0000 O   0  0  0  0  0  0           0  0  0
   -0.9417   -0.0458    0.0000 O   0  0  0  0  0  0           0  0  0
    1.5708    1.1208    0.0000 O   0  0  0  0  0  0           0  0  0
   -1.5958    1.0792    0.0000 O   0  0  0  0  0  0           0  0  0
    6.1250    1.4958    0.0000 O   0  0  0  0  0  0           0  0  0
    6.1167   -2.2583    0.0000 O   0  0  0  0  0  0           0  0  0
   -6.1458    1.4500    0.0000 O   0  0  0  0  0  0           0  0  0
   -6.1375   -2.3000    0.0000 O   0  0  0  0  0  0           0  0  0
   -4.1875   -1.1875    0.0000 C   0  0  0  0  0  0           0  0  0
    4.1625   -1.1417    0.0000 C   0  0  0  0  0  0           0  0  0
    3.5167   -0.0083    0.0000 C   0  0  0  0  0  0           0  0  0
   -3.5375   -0.0542    0.0000 C   0  0  0  0  0  0           0  0  0
   -0.3417    1.5625    0.0000 O   0  0  0  0  0  0           0  0  0
   -3.5333   -0.8125    0.0000 C   0  0  0  0  0  0           0  0  0
    3.5125   -0.7625    0.0000 C   0  0  0  0  0  0           0  0  0
   -4.9625    1.6083    0.0000 C   0  0  0  0  0  0           0  0  0
    4.8208   -2.2583    0.0000 C   0  0  0  0  0  0           0  0  0
   -4.8417   -2.3042    0.0000 C   0  0  0  0  0  0           0  0  0
    4.9417    1.6542    0.0000 C   0  0  0  0  0  0           0  0  0
   -0.3417    2.3125    0.0000 C   0  0  0  0  0  0           0  0  0
  2 22  1  0     0  0
  3 23  1  0     0  0
  4  1  1  0     0  0
  5 34  1  0     0  0
  6 33  1  0     0  0
  7  8  1  0     0  0
  8  1  1  0     0  0
  9  2  1  0     0  0
 10  3  1  0     0  0
 11 26  1  0     0  0
 12  5  1  0     0  0
 13  6  1  0     0  0
 14  7  1  0     0  0
 15 11  1  0     0  0
 16  9  1  0     0  0
 17 10  1  0     0  0
 18 12  1  0     0  0
 19 13  1  0     0  0
 20 14  2  0     0  0
 21 15  2  0     0  0
 22 35  2  0     0  0
 23 36  2  0     0  0
 24  1  1  0     0  0
 25  4  2  0     0  0
 26 24  1  0     0  0
 27  7  2  0     0  0
 28 11  2  0     0  0
 29 16  2  0     0  0
 30 18  2  0     0  0
 31 17  2  0     0  0
 32 19  2  0     0  0
 33 38  2  0     0  0
 34 39  2  0     0  0
 35 20  1  0     0  0
 36 21  1  0     0  0
 37  4  1  0     0  0
 38 36  1  0     0  0
 39 35  1  0     0  0
 40 17  1  0     0  0
 41 18  1  0     0  0
 42 19  1  0     0  0
 43 16  1  0     0  0
 44 37  1  0     0  0
  5  2  2  0     0  0
  6  3  2  0     0  0
M  END
>  <prID>
256

>  <IDDB>
81415

>  <pIC50_HIV_Integrase>
4.995678626

>  <Q>
-2.749084935

>  <Activity_Integrase>
Inactive_Integrase

NA
NA
NA
NA
$$$$

  Accelrys05311914332D 1   1.00000     0.00000     0

 44 45  0     0  0            999 V2000
    0.3083    0.4417    0.0000 C   0  0  3  0  0  0           0  0  0
    4.8167   -0.0125    0.0000 C   0  0  0  0  0  0           0  0  0
   -4.8375   -0.0583    0.0000 C   0  0  0  0  0  0           0  0  0
    0.3042    1.1917    0.0000 C   0  0  0  0  0  0           0  0  0
    0.9167    0.0000    0.0000 N   0  0  0  0  0  0           0  0  0
    4.8167   -0.7667    0.0000 C   0  0  0  0  0  0           0  0  0
   -4.8375   -0.8125    0.0000 C   0  0  0  0  0  0           0  0  0
    1.5667    0.3750    0.0000 C   0  0  0  0  0  0           0  0  0
    5.4708    0.3667    0.0000 O   0  0  0  0  0  0           0  0  0
   -5.4917    0.3208    0.0000 O   0  0  0  0  0  0           0  0  0
   -1.5917    0.3250    0.0000 C   0  0  0  0  0  0           0  0  0
    5.4708   -1.1333    0.0000 O   0  0  0  0  0  0           0  0  0
   -5.4917   -1.1792    0.0000 O   0  0  0  0  0  0           0  0  0
    2.2167   -0.0042    0.0000 C   0  0  0  0  0  0           0  0  0
   -2.2417   -0.0500    0.0000 C   0  0  0  0  0  0           0  0  0
    5.4750    1.1208    0.0000 C   0  0  0  0  0  0           0  0  0
   -5.4958    1.0750    0.0000 C   0  0  0  0  0  0           0  0  0
    5.4708   -1.8792    0.0000 C   0  0  0  0  0  0           0  0  0
   -5.4917   -1.9292    0.0000 C   0  0  0  0  0  0           0  0  0
    2.8667    0.3667    0.0000 C   0  0  0  0  0  0           0  0  0
   -2.8875    0.3208    0.0000 C   0  0  0  0  0  0           0  0  0
    4.1667    0.3625    0.0000 C   0  0  0  0  0  0           0  0  0
   -4.1917    0.3208    0.0000 C   0  0  0  0  0  0           0  0  0
   -0.4375    0.4417    0.0000 C   0  0  0  0  0  0           0  0  0
    0.8375    1.7250    0.0000 O   0  0  0  0  0  0           0  0  0
   -0.9417   -0.0458    0.0000 O   0  0  0  0  0  0           0  0  0
    1.5708    1.1250    0.0000 O   0  0  0  0  0  0           0  0  0
   -1.5958    1.0792    0.0000 O   0  0  0  0  0  0           0  0  0
    6.1250    1.4958    0.0000 O   0  0  0  0  0  0           0  0  0
    6.1167   -2.2583    0.0000 O   0  0  0  0  0  0           0  0  0
   -6.1458    1.4500    0.0000 O   0  0  0  0  0  0           0  0  0
   -6.1375   -2.3000    0.0000 O   0  0  0  0  0  0           0  0  0
   -4.1875   -1.1917    0.0000 C   0  0  0  0  0  0           0  0  0
    4.1667   -1.1375    0.0000 C   0  0  0  0  0  0           0  0  0
    3.5167   -0.0083    0.0000 C   0  0  0  0  0  0           0  0  0
   -3.5417   -0.0542    0.0000 C   0  0  0  0  0  0           0  0  0
   -0.3417    1.5625    0.0000 O   0  0  0  0  0  0           0  0  0
   -3.5375   -0.8125    0.0000 C   0  0  0  0  0  0           0  0  0
    3.5125   -0.7667    0.0000 C   0  0  0  0  0  0           0  0  0
   -4.9667    1.6083    0.0000 C   0  0  0  0  0  0           0  0  0
    4.8167   -2.2583    0.0000 C   0  0  0  0  0  0           0  0  0
   -4.8417   -2.3042    0.0000 C   0  0  0  0  0  0           0  0  0
    4.9417    1.6542    0.0000 C   0  0  0  0  0  0           0  0  0
   -0.3417    2.3125    0.0000 C   0  0  0  0  0  0           0  0  0
  2 22  1  0     0  0
  3 23  1  0     0  0
  4  1  1  0     0  0
  5  1  1  0     0  0
  6 34  1  0     0  0
  7 33  1  0     0  0
  8  5  1  0     0  0
  9  2  1  0     0  0
 10  3  1  0     0  0
 11 26  1  0     0  0
 12  6  1  0     0  0
 13  7  1  0     0  0
 14  8  1  0     0  0
 15 11  1  0     0  0
 16  9  1  0     0  0
 17 10  1  0     0  0
 18 12  1  0     0  0
 19 13  1  0     0  0
 20 14  2  0     0  0
 21 15  2  0     0  0
 22 35  2  0     0  0
 23 36  2  0     0  0
 24  1  1  0     0  0
 25  4  2  0     0  0
 26 24  1  0     0  0
 27  8  2  0     0  0
 28 11  2  0     0  0
 29 16  2  0     0  0
 30 18  2  0     0  0
 31 17  2  0     0  0
 32 19  2  0     0  0
 33 38  2  0     0  0
 34 39  2  0     0  0
 35 20  1  0     0  0
 36 21  1  0     0  0
 37  4  1  0     0  0
 38 36  1  0     0  0
 39 35  1  0     0  0
 40 17  1  0     0  0
 41 18  1  0     0  0
 42 19  1  0     0  0
 43 16  1  0     0  0
 44 37  1  0     0  0
  6  2  2  0     0  0
  7  3  2  0     0  0
M  END
>  <prID>
257

>  <IDDB>
81416

>  <pIC50_HIV_Integrase>
5.494850022

>  <Q>
-3.178057761

>  <Activity_Integrase>
Inactive_Integrase

NA
NA
NA
NA
$$$$

  Accelrys05311914332D 1   1.00000     0.00000     0

 43 44  0     0  0            999 V2000
    0.3000    0.4917    0.0000 C   0  0  3  0  0  0           0  0  0
    4.8167    0.0417    0.0000 C   0  0  0  0  0  0           0  0  0
   -4.8500   -0.0042    0.0000 C   0  0  0  0  0  0           0  0  0
    0.3000    1.2500    0.0000 C   0  0  0  0  0  0           0  0  0
    4.8167   -0.7167    0.0000 C   0  0  0  0  0  0           0  0  0
   -4.8500   -0.7625    0.0000 C   0  0  0  0  0  0           0  0  0
    1.5583    0.4292    0.0000 C   0  0  0  0  0  0           0  0  0
    0.9125    0.0542    0.0000 O   0  0  0  0  0  0           0  0  0
    5.4708    0.4208    0.0000 O   0  0  0  0  0  0           0  0  0
   -5.5083    0.3792    0.0000 O   0  0  0  0  0  0           0  0  0
   -1.6000    0.3833    0.0000 C   0  0  0  0  0  0           0  0  0
    5.4708   -1.0792    0.0000 O   0  0  0  0  0  0           0  0  0
   -5.5083   -1.1250    0.0000 O   0  0  0  0  0  0           0  0  0
    2.2125    0.0500    0.0000 C   0  0  0  0  0  0           0  0  0
   -2.2542    0.0042    0.0000 C   0  0  0  0  0  0           0  0  0
    5.4750    1.1750    0.0000 C   0  0  0  0  0  0           0  0  0
   -5.5125    1.1292    0.0000 C   0  0  0  0  0  0           0  0  0
    5.4708   -1.8292    0.0000 C   0  0  0  0  0  0           0  0  0
   -5.5083   -1.8750    0.0000 C   0  0  0  0  0  0           0  0  0
    2.8583    0.4208    0.0000 C   0  0  0  0  0  0           0  0  0
   -2.9000    0.3792    0.0000 C   0  0  0  0  0  0           0  0  0
    4.1583    0.4208    0.0000 C   0  0  0  0  0  0           0  0  0
   -4.2042    0.3750    0.0000 C   0  0  0  0  0  0           0  0  0
   -0.4417    0.4917    0.0000 C   0  0  0  0  0  0           0  0  0
    0.8292    1.7792    0.0000 O   0  0  0  0  0  0           0  0  0
   -0.9500    0.0083    0.0000 O   0  0  0  0  0  0           0  0  0
    1.5625    1.1833    0.0000 O   0  0  0  0  0  0           0  0  0
   -1.6042    1.1333    0.0000 O   0  0  0  0  0  0           0  0  0
    6.1208    1.5500    0.0000 O   0  0  0  0  0  0           0  0  0
    6.1167   -2.2042    0.0000 O   0  0  0  0  0  0           0  0  0
   -6.1500    1.5042    0.0000 O   0  0  0  0  0  0           0  0  0
   -6.1417   -2.2500    0.0000 O   0  0  0  0  0  0           0  0  0
   -4.2000   -1.1417    0.0000 C   0  0  0  0  0  0           0  0  0
    4.1583   -1.0833    0.0000 C   0  0  0  0  0  0           0  0  0
    3.5167    0.0458    0.0000 C   0  0  0  0  0  0           0  0  0
   -3.5542    0.0000    0.0000 C   0  0  0  0  0  0           0  0  0
   -0.3458    1.6208    0.0000 O   0  0  0  0  0  0           0  0  0
   -3.5500   -0.7625    0.0000 C   0  0  0  0  0  0           0  0  0
    3.5125   -0.7167    0.0000 C   0  0  0  0  0  0           0  0  0
   -4.9833    1.6667    0.0000 C   0  0  0  0  0  0           0  0  0
    4.8167   -2.2083    0.0000 C   0  0  0  0  0  0           0  0  0
   -4.8583   -2.2500    0.0000 C   0  0  0  0  0  0           0  0  0
    4.9417    1.7083    0.0000 C   0  0  0  0  0  0           0  0  0
  2 22  1  0     0  0
  3 23  1  0     0  0
  4  1  1  0     0  0
  5 34  1  0     0  0
  6 33  1  0     0  0
  7  8  1  0     0  0
  8  1  1  0     0  0
  9  2  1  0     0  0
 10  3  1  0     0  0
 11 26  1  0     0  0
 12  5  1  0     0  0
 13  6  1  0     0  0
 14  7  1  0     0  0
 15 11  1  0     0  0
 16  9  1  0     0  0
 17 10  1  0     0  0
 18 12  1  0     0  0
 19 13  1  0     0  0
 20 14  2  0     0  0
 21 15  2  0     0  0
 22 35  2  0     0  0
 23 36  2  0     0  0
 24  1  1  0     0  0
 25  4  2  0     0  0
 26 24  1  0     0  0
 27  7  2  0     0  0
 28 11  2  0     0  0
 29 16  2  0     0  0
 30 18  2  0     0  0
 31 17  2  0     0  0
 32 19  2  0     0  0
 33 38  2  0     0  0
 34 39  2  0     0  0
 35 20  1  0     0  0
 36 21  1  0     0  0
 37  4  1  0     0  0
 38 36  1  0     0  0
 39 35  1  0     0  0
 40 17  1  0     0  0
 41 18  1  0     0  0
 42 19  1  0     0  0
 43 16  1  0     0  0
  5  2  2  0     0  0
  6  3  2  0     0  0
M  END
>  <prID>
258

>  <IDDB>
81418

>  <pIC50_HIV_Integrase>
5.552841969

>  <Q>
-3.369794795

>  <Activity_Integrase>
Inactive_Integrase

NA
NA
NA
NA
$$$$

  Accelrys05311914332D 1   1.00000     0.00000     0

 43 44  0     0  0            999 V2000
    0.3000    0.4917    0.0000 C   0  0  3  0  0  0           0  0  0
    4.8167    0.0417    0.0000 C   0  0  0  0  0  0           0  0  0
   -4.8542   -0.0042    0.0000 C   0  0  0  0  0  0           0  0  0
    0.3000    1.2500    0.0000 C   0  0  0  0  0  0           0  0  0
    0.9125    0.0542    0.0000 N   0  0  0  0  0  0           0  0  0
    4.8167   -0.7167    0.0000 C   0  0  0  0  0  0           0  0  0
   -4.8542   -0.7667    0.0000 C   0  0  0  0  0  0           0  0  0
    1.5583    0.4292    0.0000 C   0  0  0  0  0  0           0  0  0
   -1.6000    0.3833    0.0000 C   0  0  0  0  0  0           0  0  0
    5.4750    0.4208    0.0000 O   0  0  0  0  0  0           0  0  0
   -5.5125    0.3792    0.0000 O   0  0  0  0  0  0           0  0  0
    5.4750   -1.0792    0.0000 O   0  0  0  0  0  0           0  0  0
   -5.5125   -1.1250    0.0000 O   0  0  0  0  0  0           0  0  0
    2.2125    0.0500    0.0000 C   0  0  0  0  0  0           0  0  0
   -2.2583    0.0042    0.0000 C   0  0  0  0  0  0           0  0  0
    5.4792    1.1750    0.0000 C   0  0  0  0  0  0           0  0  0
   -5.5167    1.1292    0.0000 C   0  0  0  0  0  0           0  0  0
    5.4750   -1.8292    0.0000 C   0  0  0  0  0  0           0  0  0
   -5.5125   -1.8750    0.0000 C   0  0  0  0  0  0           0  0  0
    2.8583    0.4208    0.0000 C   0  0  0  0  0  0           0  0  0
   -2.9000    0.3792    0.0000 C   0  0  0  0  0  0           0  0  0
   -0.9542    0.0083    0.0000 N   0  0  0  0  0  0           0  0  0
   -0.4417    0.4917    0.0000 C   0  0  0  0  0  0           0  0  0
    4.1583    0.4208    0.0000 C   0  0  0  0  0  0           0  0  0
   -4.2083    0.3750    0.0000 C   0  0  0  0  0  0           0  0  0
    0.8292    1.7833    0.0000 O   0  0  0  0  0  0           0  0  0
    1.5625    1.1833    0.0000 O   0  0  0  0  0  0           0  0  0
   -1.6042    1.1333    0.0000 O   0  0  0  0  0  0           0  0  0
    6.1208    1.5500    0.0000 O   0  0  0  0  0  0           0  0  0
    6.1167   -2.2042    0.0000 O   0  0  0  0  0  0           0  0  0
   -6.1500    1.5042    0.0000 O   0  0  0  0  0  0           0  0  0
   -6.1375   -2.2500    0.0000 O   0  0  0  0  0  0           0  0  0
   -4.2042   -1.1458    0.0000 C   0  0  0  0  0  0           0  0  0
    4.1583   -1.0833    0.0000 C   0  0  0  0  0  0           0  0  0
    3.5167    0.0458    0.0000 C   0  0  0  0  0  0           0  0  0
   -3.5583    0.0000    0.0000 C   0  0  0  0  0  0           0  0  0
   -0.3458    1.6208    0.0000 O   0  0  0  0  0  0           0  0  0
   -3.5542   -0.7667    0.0000 C   0  0  0  0  0  0           0  0  0
    3.5167   -0.7167    0.0000 C   0  0  0  0  0  0           0  0  0
   -4.9833    1.6667    0.0000 C   0  0  0  0  0  0           0  0  0
    4.8208   -2.2083    0.0000 C   0  0  0  0  0  0           0  0  0
   -4.8625   -2.2500    0.0000 C   0  0  0  0  0  0           0  0  0
    4.9458    1.7083    0.0000 C   0  0  0  0  0  0           0  0  0
  2 24  1  0     0  0
  3 25  1  0     0  0
  4  1  1  0     0  0
  5  1  1  0     0  0
  6 34  1  0     0  0
  7 33  1  0     0  0
  8  5  1  0     0  0
  9 22  1  0     0  0
 10  2  1  0     0  0
 11  3  1  0     0  0
 12  6  1  0     0  0
 13  7  1  0     0  0
 14  8  1  0     0  0
 15  9  1  0     0  0
 16 10  1  0     0  0
 17 11  1  0     0  0
 18 12  1  0     0  0
 19 13  1  0     0  0
 20 14  2  0     0  0
 21 15  2  0     0  0
 22 23  1  0     0  0
 23  1  1  0     0  0
 24 35  2  0     0  0
 25 36  2  0     0  0
 26  4  2  0     0  0
 27  8  2  0     0  0
 28  9  2  0     0  0
 29 16  2  0     0  0
 30 18  2  0     0  0
 31 17  2  0     0  0
 32 19  2  0     0  0
 33 38  2  0     0  0
 34 39  2  0     0  0
 35 20  1  0     0  0
 36 21  1  0     0  0
 37  4  1  0     0  0
 38 36  1  0     0  0
 39 35  1  0     0  0
 40 17  1  0     0  0
 41 18  1  0     0  0
 42 19  1  0     0  0
 43 16  1  0     0  0
  6  2  2  0     0  0
  7  3  2  0     0  0
M  END
>  <prID>
259

>  <IDDB>
81419

>  <pIC50_HIV_Integrase>
5.387216143

>  <Q>
-4.178669315

>  <Activity_Integrase>
Inactive_Integrase

NA
NA
NA
NA
$$$$

  Accelrys05311914332D 1   1.00000     0.00000     0

 31 32  0     0  0            999 V2000
    0.3250    0.4000    0.0000 C   0  0  3  0  0  0           0  0  0
    0.3250    1.2375    0.0000 C   0  0  0  0  0  0           0  0  0
    1.7125    0.3333    0.0000 C   0  0  0  0  0  0           0  0  0
    0.9958   -0.0792    0.0000 O   0  0  0  0  0  0           0  0  0
   -1.7667    0.2833    0.0000 C   0  0  0  0  0  0           0  0  0
    2.4250   -0.0833    0.0000 C   0  0  0  0  0  0           0  0  0
   -2.4875   -0.1333    0.0000 C   0  0  0  0  0  0           0  0  0
    5.2917   -0.0917    0.0000 C   0  0  0  0  0  0           0  0  0
   -5.3417   -0.1417    0.0000 C   0  0  0  0  0  0           0  0  0
   -3.1958    0.2792    0.0000 C   0  0  0  0  0  0           0  0  0
    3.1375    0.3250    0.0000 C   0  0  0  0  0  0           0  0  0
    5.2917   -0.9250    0.0000 C   0  0  0  0  0  0           0  0  0
   -5.3417   -0.9792    0.0000 C   0  0  0  0  0  0           0  0  0
   -0.4917    0.4000    0.0000 C   0  0  0  0  0  0           0  0  0
    4.5667    0.3208    0.0000 C   0  0  0  0  0  0           0  0  0
   -4.6333    0.2750    0.0000 C   0  0  0  0  0  0           0  0  0
    0.9042    1.8208    0.0000 O   0  0  0  0  0  0           0  0  0
   -1.0542   -0.1292    0.0000 O   0  0  0  0  0  0           0  0  0
    1.7167    1.1625    0.0000 O   0  0  0  0  0  0           0  0  0
   -1.7708    1.1042    0.0000 O   0  0  0  0  0  0           0  0  0
   -3.9167   -0.1375    0.0000 C   0  0  0  0  0  0           0  0  0
    3.8583   -0.0875    0.0000 C   0  0  0  0  0  0           0  0  0
   -4.6250   -1.4000    0.0000 C   0  0  0  0  0  0           0  0  0
    4.5667   -1.3333    0.0000 C   0  0  0  0  0  0           0  0  0
   -0.3875    1.6458    0.0000 O   0  0  0  0  0  0           0  0  0
    6.0125    0.3250    0.0000 O   0  0  0  0  0  0           0  0  0
   -6.0625    0.2792    0.0000 O   0  0  0  0  0  0           0  0  0
    3.8583   -0.9250    0.0000 C   0  0  0  0  0  0           0  0  0
   -3.9125   -0.9792    0.0000 C   0  0  0  0  0  0           0  0  0
    6.0125   -1.3250    0.0000 O   0  0  0  0  0  0           0  0  0
   -6.0625   -1.3792    0.0000 O   0  0  0  0  0  0           0  0  0
  2  1  1  0     0  0
  3  4  1  0     0  0
  4  1  1  0     0  0
  5 18  1  0     0  0
  6  3  1  0     0  0
  7  5  1  0     0  0
  8 15  1  0     0  0
  9 16  1  0     0  0
 10  7  2  0     0  0
 11  6  2  0     0  0
 12 24  1  0     0  0
 13 23  1  0     0  0
 14  1  1  0     0  0
 15 22  2  0     0  0
 16 21  2  0     0  0
 17  2  2  0     0  0
 18 14  1  0     0  0
 19  3  2  0     0  0
 20  5  2  0     0  0
 21 10  1  0     0  0
 22 11  1  0     0  0
 23 29  2  0     0  0
 24 28  2  0     0  0
 25  2  1  0     0  0
 26  8  1  0     0  0
 27  9  1  0     0  0
 28 22  1  0     0  0
 29 21  1  0     0  0
 30 12  1  0     0  0
 31 13  1  0     0  0
 12  8  2  0     0  0
 13  9  2  0     0  0
M  END
>  <prID>
260

>  <IDDB>
81420

>  <pIC50_HIV_Integrase>
5.769551079

>  <Q>
-3.380975011

>  <Activity_Integrase>
Inactive_Integrase

NA
NA
NA
NA
$$$$

  Accelrys05311914332D 1   1.00000     0.00000     0

 31 32  0     0  0            999 V2000
    0.3250    0.4000    0.0000 C   0  0  3  0  0  0           0  0  0
    0.3250    1.2375    0.0000 C   0  0  0  0  0  0           0  0  0
    0.9958   -0.0792    0.0000 N   0  0  0  0  0  0           0  0  0
    1.7125    0.3333    0.0000 C   0  0  0  0  0  0           0  0  0
   -1.7667    0.2833    0.0000 C   0  0  0  0  0  0           0  0  0
    2.4250   -0.0833    0.0000 C   0  0  0  0  0  0           0  0  0
   -2.4875   -0.1333    0.0000 C   0  0  0  0  0  0           0  0  0
    5.2917   -0.0917    0.0000 C   0  0  0  0  0  0           0  0  0
   -5.3417   -0.1417    0.0000 C   0  0  0  0  0  0           0  0  0
   -3.1958    0.2792    0.0000 C   0  0  0  0  0  0           0  0  0
    3.1375    0.3250    0.0000 C   0  0  0  0  0  0           0  0  0
    5.2917   -0.9250    0.0000 C   0  0  0  0  0  0           0  0  0
   -5.3417   -0.9792    0.0000 C   0  0  0  0  0  0           0  0  0
   -0.4917    0.4000    0.0000 C   0  0  0  0  0  0           0  0  0
    4.5667    0.3208    0.0000 C   0  0  0  0  0  0           0  0  0
   -4.6333    0.2750    0.0000 C   0  0  0  0  0  0           0  0  0
    0.9042    1.8208    0.0000 O   0  0  0  0  0  0           0  0  0
   -1.0542   -0.1292    0.0000 O   0  0  0  0  0  0           0  0  0
    1.7167    1.1625    0.0000 O   0  0  0  0  0  0           0  0  0
   -1.7708    1.1042    0.0000 O   0  0  0  0  0  0           0  0  0
   -3.9167   -0.1375    0.0000 C   0  0  0  0  0  0           0  0  0
    3.8583   -0.0875    0.0000 C   0  0  0  0  0  0           0  0  0
   -4.6250   -1.4000    0.0000 C   0  0  0  0  0  0           0  0  0
    4.5667   -1.3333    0.0000 C   0  0  0  0  0  0           0  0  0
   -0.3875    1.6458    0.0000 O   0  0  0  0  0  0           0  0  0
    6.0125    0.3250    0.0000 O   0  0  0  0  0  0           0  0  0
   -6.0625    0.2792    0.0000 O   0  0  0  0  0  0           0  0  0
    3.8583   -0.9250    0.0000 C   0  0  0  0  0  0           0  0  0
   -3.9125   -0.9792    0.0000 C   0  0  0  0  0  0           0  0  0
    6.0125   -1.3250    0.0000 O   0  0  0  0  0  0           0  0  0
   -6.0625   -1.3792    0.0000 O   0  0  0  0  0  0           0  0  0
  2  1  1  0     0  0
  3  1  1  0     0  0
  4  3  1  0     0  0
  5 18  1  0     0  0
  6  4  1  0     0  0
  7  5  1  0     0  0
  8 15  1  0     0  0
  9 16  1  0     0  0
 10  7  2  0     0  0
 11  6  2  0     0  0
 12 24  1  0     0  0
 13 23  1  0     0  0
 14  1  1  0     0  0
 15 22  2  0     0  0
 16 21  2  0     0  0
 17  2  2  0     0  0
 18 14  1  0     0  0
 19  4  2  0     0  0
 20  5  2  0     0  0
 21 10  1  0     0  0
 22 11  1  0     0  0
 23 29  2  0     0  0
 24 28  2  0     0  0
 25  2  1  0     0  0
 26  8  1  0     0  0
 27  9  1  0     0  0
 28 22  1  0     0  0
 29 21  1  0     0  0
 30 12  1  0     0  0
 31 13  1  0     0  0
 12  8  2  0     0  0
 13  9  2  0     0  0
M  END
>  <prID>
261

>  <IDDB>
81421

>  <pIC50_HIV_Integrase>
5.769551079

>  <Q>
-3.809205868

>  <Activity_Integrase>
Inactive_Integrase

NA
NA
NA
NA
$$$$

  Accelrys05311914332D 1   1.00000     0.00000     0

 44 45  0     0  0            999 V2000
    0.3083    0.4375    0.0000 C   0  0  3  0  0  0           0  0  0
    4.8208   -0.0125    0.0000 C   0  0  0  0  0  0           0  0  0
   -4.8417   -0.0583    0.0000 C   0  0  0  0  0  0           0  0  0
    0.3083    1.2000    0.0000 C   0  0  0  0  0  0           0  0  0
    0.9167    0.0000    0.0000 N   0  0  0  0  0  0           0  0  0
    4.8208   -0.7708    0.0000 C   0  0  0  0  0  0           0  0  0
   -4.8417   -0.8167    0.0000 C   0  0  0  0  0  0           0  0  0
    1.5667    0.3750    0.0000 C   0  0  0  0  0  0           0  0  0
   -1.5917    0.3250    0.0000 C   0  0  0  0  0  0           0  0  0
    5.4792    0.3667    0.0000 O   0  0  0  0  0  0           0  0  0
   -5.5000    0.3208    0.0000 O   0  0  0  0  0  0           0  0  0
    5.4792   -1.1333    0.0000 O   0  0  0  0  0  0           0  0  0
   -5.5000   -1.1792    0.0000 O   0  0  0  0  0  0           0  0  0
    2.2167   -0.0042    0.0000 C   0  0  0  0  0  0           0  0  0
   -2.2458   -0.0500    0.0000 C   0  0  0  0  0  0           0  0  0
    5.4792    1.1208    0.0000 C   0  0  0  0  0  0           0  0  0
   -5.5000    1.0750    0.0000 C   0  0  0  0  0  0           0  0  0
    5.4792   -1.8792    0.0000 C   0  0  0  0  0  0           0  0  0
   -5.5000   -1.9292    0.0000 C   0  0  0  0  0  0           0  0  0
    2.8667    0.3667    0.0000 C   0  0  0  0  0  0           0  0  0
   -2.8917    0.3208    0.0000 C   0  0  0  0  0  0           0  0  0
   -0.9417   -0.0458    0.0000 N   0  0  0  0  0  0           0  0  0
   -0.4375    0.4375    0.0000 C   0  0  0  0  0  0           0  0  0
    4.1667    0.3625    0.0000 C   0  0  0  0  0  0           0  0  0
   -4.2000    0.3208    0.0000 C   0  0  0  0  0  0           0  0  0
    0.8375    1.7250    0.0000 O   0  0  0  0  0  0           0  0  0
    1.5708    1.1250    0.0000 O   0  0  0  0  0  0           0  0  0
   -1.5958    1.0792    0.0000 O   0  0  0  0  0  0           0  0  0
    6.1333    1.4958    0.0000 O   0  0  0  0  0  0           0  0  0
    6.1250   -2.2583    0.0000 O   0  0  0  0  0  0           0  0  0
   -6.1375    1.4500    0.0000 O   0  0  0  0  0  0           0  0  0
   -6.1375   -2.3000    0.0000 O   0  0  0  0  0  0           0  0  0
   -4.1917   -1.2000    0.0000 C   0  0  0  0  0  0           0  0  0
    4.1667   -1.1375    0.0000 C   0  0  0  0  0  0           0  0  0
    3.5208   -0.0083    0.0000 C   0  0  0  0  0  0           0  0  0
   -3.5458   -0.0542    0.0000 C   0  0  0  0  0  0           0  0  0
   -0.3417    1.5708    0.0000 O   0  0  0  0  0  0           0  0  0
   -3.5417   -0.8167    0.0000 C   0  0  0  0  0  0           0  0  0
    3.5167   -0.7708    0.0000 C   0  0  0  0  0  0           0  0  0
   -4.9750    1.6167    0.0000 C   0  0  0  0  0  0           0  0  0
    4.8250   -2.2583    0.0000 C   0  0  0  0  0  0           0  0  0
   -4.8500   -2.3042    0.0000 C   0  0  0  0  0  0           0  0  0
    4.9500    1.6583    0.0000 C   0  0  0  0  0  0           0  0  0
   -0.3417    2.3208    0.0000 C   0  0  0  0  0  0           0  0  0
  2 24  1  0     0  0
  3 25  1  0     0  0
  4  1  1  0     0  0
  5  1  1  0     0  0
  6 34  1  0     0  0
  7 33  1  0     0  0
  8  5  1  0     0  0
  9 22  1  0     0  0
 10  2  1  0     0  0
 11  3  1  0     0  0
 12  6  1  0     0  0
 13  7  1  0     0  0
 14  8  1  0     0  0
 15  9  1  0     0  0
 16 10  1  0     0  0
 17 11  1  0     0  0
 18 12  1  0     0  0
 19 13  1  0     0  0
 20 14  2  0     0  0
 21 15  2  0     0  0
 22 23  1  0     0  0
 23  1  1  0     0  0
 24 35  2  0     0  0
 25 36  2  0     0  0
 26  4  2  0     0  0
 27  8  2  0     0  0
 28  9  2  0     0  0
 29 16  2  0     0  0
 30 18  2  0     0  0
 31 17  2  0     0  0
 32 19  2  0     0  0
 33 38  2  0     0  0
 34 39  2  0     0  0
 35 20  1  0     0  0
 36 21  1  0     0  0
 37  4  1  0     0  0
 38 36  1  0     0  0
 39 35  1  0     0  0
 40 17  1  0     0  0
 41 18  1  0     0  0
 42 19  1  0     0  0
 43 16  1  0     0  0
 44 37  1  0     0  0
  6  2  2  0     0  0
  7  3  2  0     0  0
M  END
>  <prID>
262

>  <IDDB>
81423

>  <pIC50_HIV_Integrase>
5

>  <Q>
-3.558633539

>  <Activity_Integrase>
Inactive_Integrase

NA
NA
NA
NA
$$$$

  Accelrys05311914332D 1   1.00000     0.00000     0

 28 28  0     0  0            999 V2000
    3.1458    0.3792    0.0000 C   0  0  3  0  0  0           0  0  0
   -2.5167   -0.1708    0.0000 C   0  0  0  0  0  0           0  0  0
    3.1458    1.2208    0.0000 C   0  0  0  0  0  0           0  0  0
    3.8208   -0.1000    0.0000 N   0  0  0  0  0  0           0  0  0
   -2.5167   -1.0000    0.0000 C   0  0  0  0  0  0           0  0  0
   -3.2417    0.2542    0.0000 O   0  0  0  0  0  0           0  0  0
    1.0583    0.2583    0.0000 C   0  0  0  0  0  0           0  0  0
   -3.2417   -1.4000    0.0000 O   0  0  0  0  0  0           0  0  0
    4.5375    0.3125    0.0000 C   0  0  0  0  0  0           0  0  0
    0.3375   -0.1542    0.0000 C   0  0  0  0  0  0           0  0  0
   -3.2417    1.0833    0.0000 C   0  0  0  0  0  0           0  0  0
   -3.2417   -2.2208    0.0000 C   0  0  0  0  0  0           0  0  0
   -0.3667    0.2542    0.0000 C   0  0  0  0  0  0           0  0  0
   -1.8083    0.2500    0.0000 C   0  0  0  0  0  0           0  0  0
    2.3333    0.3792    0.0000 C   0  0  0  0  0  0           0  0  0
    3.7333    1.7958    0.0000 O   0  0  0  0  0  0           0  0  0
    1.7708   -0.1500    0.0000 O   0  0  0  0  0  0           0  0  0
    1.0583    1.0833    0.0000 O   0  0  0  0  0  0           0  0  0
    4.5375    1.1375    0.0000 O   0  0  0  0  0  0           0  0  0
   -3.9417   -2.6333    0.0000 O   0  0  0  0  0  0           0  0  0
   -3.9375    1.4958    0.0000 O   0  0  0  0  0  0           0  0  0
   -1.8000   -1.4167    0.0000 C   0  0  0  0  0  0           0  0  0
   -1.0917   -0.1583    0.0000 C   0  0  0  0  0  0           0  0  0
    2.4375    1.6292    0.0000 O   0  0  0  0  0  0           0  0  0
   -1.0875   -1.0000    0.0000 C   0  0  0  0  0  0           0  0  0
    5.2500   -0.1042    0.0000 C   0  0  0  0  0  0           0  0  0
   -2.6625    1.6792    0.0000 C   0  0  0  0  0  0           0  0  0
   -2.5208   -2.6375    0.0000 C   0  0  0  0  0  0           0  0  0
  2 14  1  0     0  0
  3  1  1  0     0  0
  4  1  1  0     0  0
  5 22  1  0     0  0
  6  2  1  0     0  0
  7 17  1  0     0  0
  8  5  1  0     0  0
  9  4  1  0     0  0
 10  7  1  0     0  0
 11  6  1  0     0  0
 12  8  1  0     0  0
 13 10  2  0     0  0
 14 23  2  0     0  0
 15  1  1  0     0  0
 16  3  2  0     0  0
 17 15  1  0     0  0
 18  7  2  0     0  0
 19  9  2  0     0  0
 20 12  2  0     0  0
 21 11  2  0     0  0
 22 25  2  0     0  0
 23 13  1  0     0  0
 24  3  1  0     0  0
 25 23  1  0     0  0
 26  9  1  0     0  0
 27 11  1  0     0  0
 28 12  1  0     0  0
  5  2  2  0     0  0
M  END
>  <prID>
263

>  <IDDB>
81427

>  <pIC50_HIV_Integrase>
3.954677021

>  <Q>
-3.411358985

>  <Activity_Integrase>
Inactive_Integrase

NA
NA
NA
NA
$$$$

  Accelrys05311914332D 1   1.00000     0.00000     0

 26 29  0     0  0            999 V2000
    7.4124   -0.1875    0.0000 C   0  0  0  0  0  0           0  0  0
    6.6685   -0.5984    0.0000 C   0  0  0  0  0  0           0  0  0
    6.6500   -1.4500    0.0000 C   0  0  0  0  0  0           0  0  0
    7.3817   -1.8891    0.0000 C   0  0  0  0  0  0           0  0  0
    8.1227   -1.4758    0.0000 C   0  0  0  0  0  0           0  0  0
    8.1362   -0.6608    0.0000 C   0  0  0  0  0  0           0  0  0
    8.8528   -1.9106    0.0000 N   0  0  0  0  0  0           0  0  0
    9.5973   -1.4968    0.0000 C   0  0  0  0  0  0           0  0  0
    9.6072   -0.6435    0.0000 C   0  0  0  0  0  0           0  0  0
    8.8763   -0.2124    0.0000 C   0  0  0  0  0  0           0  0  0
    7.3763   -2.7125    0.0000 O   0  0  0  0  0  0           0  0  0
    5.9416   -1.8542    0.0000 C   0  0  0  0  0  0           0  0  0
    5.2333   -1.4416    0.0000 C   0  0  0  0  0  0           0  0  0
    4.5249   -1.8458    0.0000 C   0  0  0  0  0  0           0  0  0
    5.9375   -2.6667    0.0000 O   0  0  0  0  0  0           0  0  0
    3.8166   -1.4458    0.0000 C   0  0  0  0  0  0           0  0  0
    3.1166   -1.8500    0.0000 C   0  0  0  0  0  0           0  0  0
    2.4124   -1.4458    0.0000 C   0  0  0  0  0  0           0  0  0
    5.2042   -0.6043    0.0000 N   0  0  0  0  0  0           0  0  0
    4.5291   -0.2125    0.0000 C   0  0  0  0  0  0           0  0  0
    3.8166   -0.6292    0.0000 C   0  0  0  0  0  0           0  0  0
    1.7125   -1.8500    0.0000 C   0  0  0  0  0  0           0  0  0
    2.4124   -0.6334    0.0000 C   0  0  0  0  0  0           0  0  0
    1.0125   -1.4500    0.0000 C   0  0  0  0  0  0           0  0  0
    1.7083   -0.2250    0.0000 C   0  0  0  0  0  0           0  0  0
    1.0083   -0.6376    0.0000 C   0  0  0  0  0  0           0  0  0
  6  1  1  0     0  0
  1  2  2  0     0  0
  2  3  1  0     0  0
  3  4  2  0     0  0
  5  7  1  0     0  0
  7  8  2  0     0  0
  8  9  1  0     0  0
  9 10  2  0     0  0
 10  6  1  0     0  0
  4  5  1  0     0  0
  4 11  1  0     0  0
  5  6  2  0     0  0
 12  3  1  0     0  0
 13 12  1  0     0  0
 14 13  2  0     0  0
 15 12  2  0     0  0
 16 14  1  0     0  0
 17 16  1  0     0  0
 18 17  1  0     0  0
 19 13  1  0     0  0
 20 19  2  0     0  0
 21 20  1  0     0  0
 22 18  1  0     0  0
 23 18  2  0     0  0
 24 22  2  0     0  0
 25 23  1  0     0  0
 26 24  1  0     0  0
 21 16  2  0     0  0
 26 25  2  0     0  0
M  END
>  <prID>
264

>  <IDDB>
81432

>  <pIC50_HIV_Integrase>
7.301029996

>  <Q>
0.721927115

>  <Activity_Integrase>
Active_Integrase

NA
NA
NA
NA
$$$$

  Accelrys05311914332D 1   1.00000     0.00000     0

 20 21  0     0  0            999 V2000
   -2.0583   -0.3625    0.0000 C   0  0  0  0  0  0           0  0  0
    2.0625   -0.3458    0.0000 C   0  0  0  0  0  0           0  0  0
    1.6458    0.3625    0.0000 C   0  0  0  0  0  0           0  0  0
   -1.6500    0.3458    0.0000 C   0  0  0  0  0  0           0  0  0
   -0.4125   -0.3625    0.0000 N   0  0  0  0  0  0           0  0  0
    0.4167   -0.3583    0.0000 N   0  0  0  0  0  0           0  0  0
   -2.8833   -0.3667    0.0000 C   0  0  0  0  0  0           0  0  0
    2.8875   -0.3375    0.0000 C   0  0  0  0  0  0           0  0  0
    0.8208    0.3625    0.0000 C   0  0  0  0  0  0           0  0  0
   -0.8250    0.3500    0.0000 C   0  0  0  0  0  0           0  0  0
   -1.6542   -1.0750    0.0000 O   0  0  0  0  0  0           0  0  0
    1.6417   -1.0583    0.0000 O   0  0  0  0  0  0           0  0  0
   -3.3000   -1.0792    0.0000 O   0  0  0  0  0  0           0  0  0
    3.2958   -1.0500    0.0000 O   0  0  0  0  0  0           0  0  0
    2.0500    1.0833    0.0000 C   0  0  0  0  0  0           0  0  0
   -2.0625    1.0583    0.0000 C   0  0  0  0  0  0           0  0  0
    2.8708    1.0917    0.0000 C   0  0  0  0  0  0           0  0  0
   -2.8833    1.0583    0.0000 C   0  0  0  0  0  0           0  0  0
    3.2958    0.3792    0.0000 C   0  0  0  0  0  0           0  0  0
   -3.2958    0.3458    0.0000 C   0  0  0  0  0  0           0  0  0
  2  3  2  0     0  0
  3  9  1  0     0  0
  4  1  2  0     0  0
  5 10  2  0     0  0
  6  5  1  0     0  0
  7  1  1  0     0  0
  8  2  1  0     0  0
  9  6  2  0     0  0
 10  4  1  0     0  0
 11  1  1  0     0  0
 12  2  1  0     0  0
 13  7  1  0     0  0
 14  8  1  0     0  0
 15  3  1  0     0  0
 16  4  1  0     0  0
 17 15  2  0     0  0
 18 20  1  0     0  0
 19 17  1  0     0  0
 20  7  2  0     0  0
 18 16  2  0     0  0
 19  8  2  0     0  0
M  END
>  <prID>
265

>  <IDDB>
82022

>  <pIC50_HIV_Integrase>
4.853871964

>  <Q>
-1.79524994

>  <Activity_Integrase>
Inactive_Integrase

NA
NA
NA
NA
$$$$

  Accelrys05311914332D 1   1.00000     0.00000     0

 18 17  0     0  0            999 V2000
    3.2167   -0.2042    0.0000 P   0  0  3  0  0  0           0  0  0
   -3.2167    0.2083    0.0000 P   0  0  3  0  0  0           0  0  0
   -2.5000   -0.2042    0.0000 C   0  0  3  0  0  0           0  0  0
    2.5000    0.2083    0.0000 C   0  0  3  0  0  0           0  0  0
    3.2083   -1.0250    0.0000 O   0  0  0  0  0  0           0  0  0
   -3.2208    1.0333    0.0000 O   0  0  0  0  0  0           0  0  0
   -1.7833    0.2083    0.0000 C   0  0  0  0  0  0           0  0  0
    1.7875   -0.2042    0.0000 C   0  0  0  0  0  0           0  0  0
    3.2083    0.6208    0.0000 O   0  0  0  0  0  0           0  0  0
   -4.0417    0.2083    0.0000 O   0  0  0  0  0  0           0  0  0
   -3.2208   -0.6167    0.0000 O   0  0  0  0  0  0           0  0  0
    4.0375   -0.2000    0.0000 O   0  0  0  0  0  0           0  0  0
   -2.5000   -1.0292    0.0000 N   0  0  0  0  0  0           0  0  0
    2.5000    1.0333    0.0000 N   0  0  0  0  0  0           0  0  0
   -0.3583    0.2083    0.0000 S   0  0  0  0  0  0           0  0  0
    0.3583   -0.2042    0.0000 S   0  0  0  0  0  0           0  0  0
   -1.0708   -0.2042    0.0000 C   0  0  0  0  0  0           0  0  0
    1.0708    0.2083    0.0000 C   0  0  0  0  0  0           0  0  0
  2  3  1  0     0  0
  3  7  1  0     0  0
  4  1  1  0     0  0
  5  1  2  0     0  0
  6  2  2  0     0  0
  7 17  1  0     0  0
  8  4  1  0     0  0
  9  1  1  0     0  0
 10  2  1  0     0  0
 11  2  1  0     0  0
 12  1  1  0     0  0
 13  3  1  0     0  0
 14  4  1  0     0  0
 15 16  1  0     0  0
 16 18  1  0     0  0
 17 15  1  0     0  0
 18  8  1  0     0  0
M  END
>  <prID>
266

>  <IDDB>
82024

>  <pIC50_HIV_Integrase>
3.53165267

>  <Q>
-7.501028897

>  <Activity_Integrase>
Inactive_Integrase

NA
NA
NA
NA
$$$$

  Accelrys05311914332D 1   1.00000     0.00000     0

 38 39  0     0  0            999 V2000
   -3.2833   -0.7500    0.0000 C   0  0  0  0  0  0           0  0  0
    3.8792    0.0625    0.0000 C   0  0  0  0  0  0           0  0  0
   -3.2833   -1.5708    0.0000 N   0  3  0  0  0  0           0  0  0
    3.8750   -0.7625    0.0000 N   0  3  0  0  0  0           0  0  0
   -5.4208   -1.1667    0.0000 N   0  3  0  0  0  0           0  0  0
    5.3083    1.7083    0.0000 N   0  3  0  0  0  0           0  0  0
   -3.9875   -1.1625    0.0000 C   0  0  0  0  0  0           0  0  0
    4.5917    0.4708    0.0000 C   0  0  0  0  0  0           0  0  0
   -3.2833    0.0708    0.0000 C   0  0  0  0  0  0           0  0  0
    3.1667    0.4750    0.0000 C   0  0  0  0  0  0           0  0  0
    1.7375    0.4792    0.0000 C   0  0  2  0  0  0           0  0  0
   -1.8583    0.0750    0.0000 C   0  0  2  0  0  0           0  0  0
    2.4542    0.0625    0.0000 N   0  0  0  0  0  0           0  0  0
   -2.5708    0.4833    0.0000 N   0  0  0  0  0  0           0  0  0
    4.5958    1.3000    0.0000 C   0  0  0  0  0  0           0  0  0
   -4.7083   -0.7542    0.0000 C   0  0  0  0  0  0           0  0  0
   -1.8542   -0.7583    0.0000 C   0  0  0  0  0  0           0  0  0
    1.7375    1.3042    0.0000 C   0  0  0  0  0  0           0  0  0
   -2.5750   -1.9875    0.0000 O   0  5  0  0  0  0           0  0  0
    3.1583   -1.1750    0.0000 O   0  5  0  0  0  0           0  0  0
    4.5875   -1.1792    0.0000 O   0  0  0  0  0  0           0  0  0
   -4.0000   -1.9792    0.0000 O   0  0  0  0  0  0           0  0  0
   -5.4208   -1.9917    0.0000 O   0  5  0  0  0  0           0  0  0
   -6.1292   -0.7583    0.0000 O   0  0  0  0  0  0           0  0  0
    6.0208    1.2958    0.0000 O   0  5  0  0  0  0           0  0  0
    5.3125    2.5333    0.0000 O   0  0  0  0  0  0           0  0  0
   -4.0000    0.4833    0.0000 C   0  0  0  0  0  0           0  0  0
    3.1625    1.3000    0.0000 C   0  0  0  0  0  0           0  0  0
   -2.5708   -1.1708    0.0000 O   0  0  0  0  0  0           0  0  0
    2.4583    1.7167    0.0000 O   0  0  0  0  0  0           0  0  0
   -4.7083    0.0708    0.0000 C   0  0  0  0  0  0           0  0  0
    3.8792    1.7125    0.0000 C   0  0  0  0  0  0           0  0  0
   -1.1333    0.4792    0.0000 C   0  0  0  0  0  0           0  0  0
    1.0167    0.0667    0.0000 C   0  0  0  0  0  0           0  0  0
    0.3000    0.4792    0.0000 S   0  0  0  0  0  0           0  0  0
   -0.4125    0.0667    0.0000 S   0  0  0  0  0  0           0  0  0
   -1.1417   -1.1750    0.0000 O   0  0  0  0  0  0           0  0  0
    1.0250    1.7208    0.0000 O   0  0  0  0  0  0           0  0  0
  2 10  2  0     0  0
  3  1  1  0     0  0
  4  2  1  0     0  0
  5 16  1  0     0  0
  6 15  1  0     0  0
  7  1  2  0     0  0
  8  2  1  0     0  0
  9  1  1  0     0  0
 10 13  1  0     0  0
 11 34  1  1     0  0
 12 14  1  0     0  0
 13 11  1  0     0  0
 14  9  1  0     0  0
 15 32  1  0     0  0
 16  7  1  0     0  0
 17 12  1  0     0  0
 18 11  1  0     0  0
 19  3  1  0     0  0
 20  4  1  0     0  0
 21  4  2  0     0  0
 22  3  2  0     0  0
 23  5  1  0     0  0
 24  5  2  0     0  0
 25  6  1  0     0  0
 26  6  2  0     0  0
 27  9  2  0     0  0
 28 10  1  0     0  0
 29 17  2  0     0  0
 30 18  2  0     0  0
 31 16  2  0     0  0
 32 28  2  0     0  0
 12 33  1  1     0  0
 34 35  1  0     0  0
 35 36  1  0     0  0
 36 33  1  0     0  0
 37 17  1  0     0  0
 38 18  1  0     0  0
 31 27  1  0     0  0
 15  8  2  0     0  0
M  CHG  8   3   1   4   1   5   1   6   1  19  -1  20  -1  23  -1  25  -1
M  END
>  <prID>
267

>  <IDDB>
82025

>  <pIC50_HIV_Integrase>
4.503997333

>  <Q>
-2.02914512

>  <Activity_Integrase>
Inactive_Integrase

NA
NA
NA
NA
$$$$

  Accelrys05311914332D 1   1.00000     0.00000     0

 32 36  0     0  0            999 V2000
    0.0833   -0.5333    0.0000 C   0  0  0  0  0  0           0  0  0
   -0.6250   -0.1167    0.0000 C   0  0  3  0  0  0           0  0  0
    0.8000   -0.1250    0.0000 C   0  0  0  0  0  0           0  0  0
   -1.3375   -0.5333    0.0000 C   0  0  3  0  0  0           0  0  0
    1.5125   -0.5375    0.0000 C   0  0  0  0  0  0           0  0  0
   -2.0500   -0.1208    0.0000 C   0  0  0  0  0  0           0  0  0
   -3.4833   -0.1208    0.0000 C   0  0  0  0  0  0           0  0  0
    3.6542   -0.1417    0.0000 C   0  0  0  0  0  0           0  0  0
   -2.7667   -0.5375    0.0000 C   0  0  0  0  0  0           0  0  0
    0.0792   -1.3583    0.0000 N   0  0  0  0  0  0           0  0  0
   -3.4792    0.7042    0.0000 C   0  0  0  0  0  0           0  0  0
    3.6583    0.6833    0.0000 C   0  0  0  0  0  0           0  0  0
    2.2292   -0.1333    0.0000 C   0  0  0  0  0  0           0  0  0
    2.9375   -0.5500    0.0000 C   0  0  0  0  0  0           0  0  0
   -4.2000   -0.5375    0.0000 O   0  0  0  0  0  0           0  0  0
    4.3625   -0.5583    0.0000 O   0  0  0  0  0  0           0  0  0
   -4.1875    1.1208    0.0000 O   0  0  0  0  0  0           0  0  0
    4.3750    1.0958    0.0000 O   0  0  0  0  0  0           0  0  0
   -2.0542    0.7083    0.0000 C   0  0  0  0  0  0           0  0  0
   -2.7708    1.1208    0.0000 C   0  0  0  0  0  0           0  0  0
   -1.3375   -1.3583    0.0000 N   0  0  0  0  0  0           0  0  0
    2.9417    1.1000    0.0000 C   0  0  0  0  0  0           0  0  0
    2.2292    0.6917    0.0000 C   0  0  0  0  0  0           0  0  0
   -0.6208    0.7042    0.0000 C   0  0  0  0  0  0           0  0  0
    0.7917   -1.7750    0.0000 O   0  0  0  0  0  0           0  0  0
    0.8000    0.7000    0.0000 C   0  0  0  0  0  0           0  0  0
   -2.0500   -1.7708    0.0000 O   0  0  0  0  0  0           0  0  0
    0.0875    1.1208    0.0000 C   0  0  0  0  0  0           0  0  0
   -4.9125   -0.1167    0.0000 C   0  0  0  0  0  0           0  0  0
    5.0792   -0.1500    0.0000 C   0  0  0  0  0  0           0  0  0
   -4.9083    0.7125    0.0000 C   0  0  0  0  0  0           0  0  0
    5.0875    0.6750    0.0000 C   0  0  0  0  0  0           0  0  0
  2  1  1  0     0  0
  3  1  1  0     0  0
  4  2  1  0     0  0
  5  3  2  0     0  0
  6  4  1  0     0  0
  7  9  1  0     0  0
  8 14  1  0     0  0
  9  6  2  0     0  0
 10  1  2  0     0  0
 11 20  1  0     0  0
 12 22  1  0     0  0
 13  5  1  0     0  0
 14 13  2  0     0  0
 15  7  1  0     0  0
 16  8  1  0     0  0
 17 11  1  0     0  0
 18 12  1  0     0  0
 19  6  1  0     0  0
 20 19  2  0     0  0
 21  4  1  0     0  0
 22 23  2  0     0  0
 23 13  1  0     0  0
 24  2  1  0     0  0
 25 10  1  0     0  0
 26  3  1  0     0  0
 27 21  1  0     0  0
 28 26  1  0     0  0
 29 15  1  0     0  0
 30 16  1  0     0  0
 31 17  1  0     0  0
 32 18  1  0     0  0
 28 24  1  0     0  0
 12  8  2  0     0  0
 11  7  2  0     0  0
 32 30  1  0     0  0
 31 29  1  0     0  0
M  END
>  <prID>
268

>  <IDDB>
82027

>  <pIC50_HIV_Integrase>
3.698970004

>  <Q>
-3.952397595

>  <Activity_Integrase>
Inactive_Integrase

NA
NA
NA
NA
$$$$

  Accelrys05311914332D 1   1.00000     0.00000     0

 36 38  0     0  0            999 V2000
    0.5708   -0.2458    0.0000 C   0  0  0  0  0  0           0  0  0
   -0.6875   -0.3750    0.0000 C   0  0  0  0  0  0           0  0  0
    1.2750    0.0833    0.0000 C   0  0  0  0  0  0           0  0  0
   -1.3667   -0.0250    0.0000 C   0  0  0  0  0  0           0  0  0
   -0.1000    0.0542    0.0000 C   0  0  3  0  0  0           0  0  0
    1.9542   -0.2708    0.0000 C   0  0  0  0  0  0           0  0  0
   -2.0750   -0.3500    0.0000 C   0  0  0  0  0  0           0  0  0
    0.4333   -0.9667    0.0000 C   0  0  0  0  0  0           0  0  0
   -0.5708   -1.1000    0.0000 C   0  0  0  0  0  0           0  0  0
    2.0708   -0.9917    0.0000 C   0  0  0  0  0  0           0  0  0
   -2.2083   -1.0708    0.0000 C   0  0  0  0  0  0           0  0  0
    1.6250   -1.4375    0.0000 C   0  0  0  0  0  0           0  0  0
   -1.7625   -1.5375    0.0000 C   0  0  0  0  0  0           0  0  0
    0.8792   -1.4375    0.0000 C   0  0  0  0  0  0           0  0  0
   -1.0167   -1.5375    0.0000 C   0  0  0  0  0  0           0  0  0
   -0.1708    0.7833    0.0000 C   0  0  0  0  0  0           0  0  0
    0.8667    3.0958    0.0000 C   0  0  0  0  0  0           0  0  0
    2.5417    0.1625    0.0000 O   0  0  0  0  0  0           0  0  0
   -2.7208    0.1583    0.0000 O   0  0  0  0  0  0           0  0  0
    0.9417    2.3667    0.0000 O   0  0  0  0  0  0           0  0  0
   -1.3500    0.7417    0.0000 O   0  0  0  0  0  0           0  0  0
    1.2917    0.8417    0.0000 O   0  0  0  0  0  0           0  0  0
    0.4208    1.2083    0.0000 C   0  0  0  0  0  0           0  0  0
   -0.8375    1.0792    0.0000 C   0  0  0  0  0  0           0  0  0
    1.9417   -2.2000    0.0000 C   0  0  3  0  0  0           0  0  0
   -2.0917   -2.3000    0.0000 C   0  0  3  0  0  0           0  0  0
   -0.3958    2.9625    0.0000 O   0  0  0  0  0  0           0  0  0
    0.2000    3.3958    0.0000 C   0  0  0  0  0  0           0  0  0
   -0.3208    2.2375    0.0000 C   0  0  0  0  0  0           0  0  0
    1.4583    3.5250    0.0000 O   0  0  0  0  0  0           0  0  0
    0.3500    1.9375    0.0000 C   0  0  0  0  0  0           0  0  0
   -0.9125    1.8042    0.0000 C   0  0  0  0  0  0           0  0  0
    1.4417   -2.8542    0.0000 C   0  0  0  0  0  0           0  0  0
    2.7583   -2.3042    0.0000 C   0  0  0  0  0  0           0  0  0
   -2.9083   -2.3958    0.0000 C   0  0  0  0  0  0           0  0  0
   -1.6000   -2.9583    0.0000 C   0  0  0  0  0  0           0  0  0
  2  5  1  0     0  0
  3  1  2  0     0  0
  4  2  2  0     0  0
  5  1  1  0     0  0
  6  3  1  0     0  0
  7  4  1  0     0  0
  8  1  1  0     0  0
  9  2  1  0     0  0
 10  6  1  0     0  0
 11  7  1  0     0  0
 12 14  1  0     0  0
 13 15  1  0     0  0
 14  8  2  0     0  0
 15  9  2  0     0  0
 16  5  1  0     0  0
 17 28  1  0     0  0
 18  6  2  0     0  0
 19  7  2  0     0  0
 20 17  2  0     0  0
 21  4  1  0     0  0
 22  3  1  0     0  0
 23 16  2  0     0  0
 24 16  1  0     0  0
 25 12  1  0     0  0
 26 13  1  0     0  0
 27 29  1  0     0  0
 28 27  1  0     0  0
 29 32  1  0     0  0
 30 17  1  0     0  0
 31 23  1  0     0  0
 32 24  2  0     0  0
 33 25  1  0     0  0
 34 25  1  0     0  0
 35 26  1  0     0  0
 36 26  1  0     0  0
 12 10  2  0     0  0
 29 31  2  0     0  0
 13 11  2  0     0  0
M  END
>  <prID>
269

>  <IDDB>
82028

>  <pIC50_HIV_Integrase>
5.638272164

>  <Q>
-2.299802467

>  <Activity_Integrase>
Inactive_Integrase

NA
NA
NA
NA
$$$$

  Accelrys05311914332D 1   1.00000     0.00000     0

 55 60  0     0  0            999 V2000
   -3.1458    0.3250    0.0000 C   0  0  0  0  0  0           0  0  0
    3.2708   -0.1042    0.0000 C   0  0  0  0  0  0           0  0  0
   -3.1500    1.1500    0.0000 C   0  0  0  0  0  0           0  0  0
    3.2583   -0.9250    0.0000 C   0  0  0  0  0  0           0  0  0
   -1.7208    0.3250    0.0000 C   0  0  0  0  0  0           0  0  0
    1.8458   -0.0917    0.0000 C   0  0  0  0  0  0           0  0  0
   -2.4375   -0.0833    0.0000 C   0  0  0  0  0  0           0  0  0
    2.5583    0.3167    0.0000 C   0  0  0  0  0  0           0  0  0
   -2.4417    1.5625    0.0000 C   0  0  0  0  0  0           0  0  0
    2.5458   -1.3333    0.0000 C   0  0  0  0  0  0           0  0  0
   -1.7208    1.1500    0.0000 C   0  0  0  0  0  0           0  0  0
    1.8375   -0.9167    0.0000 C   0  0  0  0  0  0           0  0  0
   -3.8625   -0.0833    0.0000 C   0  0  0  0  0  0           0  0  0
    3.9792    0.3000    0.0000 C   0  0  0  0  0  0           0  0  0
    1.1333    0.3250    0.0000 C   0  0  0  0  0  0           0  0  0
   -1.0125   -0.0875    0.0000 C   0  0  0  0  0  0           0  0  0
   -3.8625    1.5667    0.0000 C   0  0  2  0  0  0           0  0  0
    3.9625   -1.3417    0.0000 C   0  0  2  0  0  0           0  0  0
   -4.5750    1.1500    0.0000 C   0  0  2  0  0  0           0  0  0
    4.6792   -0.9417    0.0000 C   0  0  2  0  0  0           0  0  0
   -0.2958    0.3250    0.0000 C   0  0  0  0  0  0           0  0  0
    0.4167   -0.0875    0.0000 C   0  0  0  0  0  0           0  0  0
    4.6875   -0.1208    0.0000 C   0  0  0  0  0  0           0  0  0
   -4.5750    0.3250    0.0000 C   0  0  0  0  0  0           0  0  0
   -3.8625    2.3917    0.0000 C   0  0  2  0  0  0           0  0  0
    3.9500   -2.1667    0.0000 C   0  0  2  0  0  0           0  0  0
   -1.0125    1.5667    0.0000 C   0  0  0  0  0  0           0  0  0
    1.1250   -1.3250    0.0000 C   0  0  0  0  0  0           0  0  0
   -0.2958    1.1542    0.0000 C   0  0  0  0  0  0           0  0  0
    0.4167   -0.9167    0.0000 C   0  0  0  0  0  0           0  0  0
   -4.5833    2.8042    0.0000 O   0  0  0  0  0  0           0  0  0
    4.6583   -2.5875    0.0000 O   0  0  0  0  0  0           0  0  0
    2.5625    1.1417    0.0000 O   0  0  0  0  0  0           0  0  0
   -2.4375   -0.9083    0.0000 O   0  0  0  0  0  0           0  0  0
   -5.2958    2.3875    0.0000 C   0  0  0  0  0  0           0  0  0
    4.6500   -3.4125    0.0000 C   0  0  0  0  0  0           0  0  0
    2.5375   -2.1583    0.0000 O   0  0  0  0  0  0           0  0  0
   -2.4417    2.3917    0.0000 O   0  0  0  0  0  0           0  0  0
   -3.8625   -0.9083    0.0000 O   0  0  0  0  0  0           0  0  0
    3.9917    1.1250    0.0000 O   0  0  0  0  0  0           0  0  0
   -5.2917    1.5625    0.0000 O   0  0  0  0  0  0           0  0  0
    3.9292   -3.8167    0.0000 O   0  0  0  0  0  0           0  0  0
    5.3875   -1.3625    0.0000 O   0  0  0  0  0  0           0  0  0
   -5.1625    0.5667    0.0000 O   0  0  0  0  0  0           0  0  0
   -1.0208   -0.9083    0.0000 O   0  0  0  0  0  0           0  0  0
    1.1250    1.1542    0.0000 O   0  0  0  0  0  0           0  0  0
   -5.3750    0.9375    0.0000 C   0  0  0  0  0  0           0  0  0
    5.3875   -0.5208    0.0000 C   0  0  0  0  0  0           0  0  0
   -3.1542    2.8083    0.0000 C   0  0  0  0  0  0           0  0  0
    3.2333   -2.5708    0.0000 C   0  0  0  0  0  0           0  0  0
    5.3583   -3.8375    0.0000 C   0  0  0  0  0  0           0  0  0
   -6.0083    2.8000    0.0000 C   0  0  0  0  0  0           0  0  0
   -3.1542    1.9833    0.0000 H   0  0  0  0  0  0           0  0  0
   -4.5833    1.9833    0.0000 H   0  0  0  0  0  0           0  0  0
    3.2417   -1.7458    0.0000 H   0  0  0  0  0  0           0  0  0
  2  8  1  0     0  0
  3  1  2  0     0  0
  4 10  1  0     0  0
  5  7  1  0     0  0
  6 15  1  0     0  0
  7  1  1  0     0  0
  8  6  1  0     0  0
  9  3  1  0     0  0
 10 12  1  0     0  0
 11  5  2  0     0  0
 12 28  1  0     0  0
 13  1  1  0     0  0
 14  2  1  0     0  0
 15 22  2  0     0  0
 16  5  1  0     0  0
 17  3  1  0     0  0
 18  4  1  0     0  0
 19 24  1  0     0  0
 20 18  1  0     0  0
 21 16  2  0     0  0
 22 21  1  0     0  0
 23 14  1  0     0  0
 24 13  1  0     0  0
 25 17  1  0     0  0
 26 18  1  0     0  0
 27 11  1  0     0  0
 28 30  2  0     0  0
 29 27  2  0     0  0
 30 22  1  0     0  0
 25 31  1  6     0  0
 26 32  1  6     0  0
 33  8  2  0     0  0
 34  7  2  0     0  0
 35 31  1  0     0  0
 36 32  1  0     0  0
 37 10  2  0     0  0
 38  9  2  0     0  0
 39 13  2  0     0  0
 40 14  2  0     0  0
 41 35  2  0     0  0
 42 36  2  0     0  0
 20 43  1  6     0  0
 19 44  1  6     0  0
 45 16  1  0     0  0
 46 15  1  0     0  0
 19 47  1  1     0  0
 20 48  1  1     0  0
 49 25  1  0     0  0
 50 26  1  0     0  0
 51 36  1  0     0  0
 52 35  1  0     0  0
 17 53  1  1     0  0
 25 54  1  1     0  0
 18 55  1  1     0  0
 19 17  1  0     0  0
 11  9  1  0     0  0
 21 29  1  0     0  0
 12  6  2  0     0  0
  4  2  2  0     0  0
 20 23  1  0     0  0
M  END
>  <prID>
270

>  <IDDB>
82032

>  <pIC50_HIV_Integrase>
3.853871964

>  <Q>
-6.418416468

>  <Activity_Integrase>
Inactive_Integrase

NA
NA
NA
NA
$$$$

  Accelrys05311914332D 1   1.00000     0.00000     0

 44 49  0     0  0            999 V2000
   -0.7042    1.7917    0.0000 C   0  0  0  0  0  0           0  0  0
   -0.7083    0.9625    0.0000 C   0  0  0  0  0  0           0  0  0
   -1.4250    0.5625    0.0000 C   0  0  0  0  0  0           0  0  0
   -1.4208    2.2083    0.0000 C   0  0  0  0  0  0           0  0  0
    0.7208    0.9583    0.0000 C   0  0  0  0  0  0           0  0  0
    0.7250    1.7833    0.0000 C   0  0  0  0  0  0           0  0  0
   -2.1333    0.9750    0.0000 C   0  0  0  0  0  0           0  0  0
    0.0083    2.2042    0.0000 C   0  0  0  0  0  0           0  0  0
    0.0000    0.5500    0.0000 C   0  0  0  0  0  0           0  0  0
   -2.1292    1.8000    0.0000 C   0  0  0  0  0  0           0  0  0
    2.1583    1.7792    0.0000 C   0  0  2  0  0  0           0  0  0
    0.1875   -2.5000    0.0000 C   0  0  3  0  0  0           0  0  0
    1.4333    0.5417    0.0000 C   0  0  2  0  0  0           0  0  0
    1.4417    2.2000    0.0000 C   0  0  0  0  0  0           0  0  0
   -0.2250   -1.7875    0.0000 C   0  0  3  0  0  0           0  0  0
    1.4208   -1.7833    0.0000 C   0  0  3  0  0  0           0  0  0
    1.0125   -2.5000    0.0000 C   0  0  0  0  0  0           0  0  0
    1.0125   -1.0750    0.0000 O   0  0  0  0  0  0           0  0  0
    2.1542    0.9458    0.0000 C   0  0  0  0  0  0           0  0  0
    0.1833   -3.3208    0.0000 N   0  0  3  0  0  0           0  0  0
    0.1875   -1.0750    0.0000 C   0  0  1  0  0  0           0  0  0
    2.8750    2.1833    0.0000 C   0  0  0  0  0  0           0  0  0
    1.4167   -0.9583    0.0000 O   0  0  0  0  0  0           0  0  0
   -1.4167    3.0333    0.0000 O   0  0  0  0  0  0           0  0  0
   -1.4292   -0.2667    0.0000 O   0  0  0  0  0  0           0  0  0
   -2.8417    0.5625    0.0000 C   0  0  0  0  0  0           0  0  0
    2.8792    3.0083    0.0000 O   0  0  0  0  0  0           0  0  0
    0.0042    3.0292    0.0000 O   0  0  0  0  0  0           0  0  0
   -0.0042   -0.2750    0.0000 O   0  0  0  0  0  0           0  0  0
    0.1708   -4.9708    0.0000 O   0  0  0  0  0  0           0  0  0
    2.8667    1.3667    0.0000 O   0  0  0  0  0  0           0  0  0
   -0.2333   -2.6125    0.0000 O   0  0  0  0  0  0           0  0  0
   -2.8417    2.2167    0.0000 C   0  0  0  0  0  0           0  0  0
   -2.8417   -0.2583    0.0000 O   0  0  0  0  0  0           0  0  0
   -0.5375   -3.7292    0.0000 C   0  0  0  0  0  0           0  0  0
    0.8958   -3.7375    0.0000 C   0  0  0  0  0  0           0  0  0
    3.5875    1.7667    0.0000 C   0  0  0  0  0  0           0  0  0
    4.3042    2.1750    0.0000 O   0  0  0  0  0  0           0  0  0
   -0.5292   -0.6583    0.0000 C   0  0  0  0  0  0           0  0  0
   -3.5542    1.8000    0.0000 C   0  0  0  0  0  0           0  0  0
   -3.5542    0.9750    0.0000 C   0  0  0  0  0  0           0  0  0
    0.8875   -4.5625    0.0000 C   0  0  0  0  0  0           0  0  0
   -0.5417   -4.5542    0.0000 C   0  0  0  0  0  0           0  0  0
   -3.5542   -0.6750    0.0000 C   0  0  0  0  0  0           0  0  0
  2  1  1  0     0  0
  3  2  1  0     0  0
  4  1  1  0     0  0
  5  9  1  0     0  0
  6  8  1  0     0  0
  7  3  1  0     0  0
  8  1  2  0     0  0
  9  2  2  0     0  0
 10  4  1  0     0  0
 11 14  1  0     0  0
 12 17  1  0     0  0
 13  5  1  0     0  0
 14  6  1  0     0  0
 15 21  1  0     0  0
 16 23  1  0     0  0
 17 16  1  0     0  0
 18 16  1  0     0  0
 19 13  1  0     0  0
 20 12  1  0     0  0
 21 18  1  0     0  0
 11 22  1  1     0  0
 13 23  1  6     0  0
 24  4  2  0     0  0
 25  3  2  0     0  0
 26  7  1  0     0  0
 27 22  2  0     0  0
 28  8  1  0     0  0
 29  9  1  0     0  0
 30 42  1  0     0  0
 11 31  1  6     0  0
 32 15  1  0     0  0
 33 10  1  0     0  0
 34 26  1  0     0  0
 35 20  1  0     0  0
 36 20  1  0     0  0
 37 22  1  0     0  0
 38 37  1  0     0  0
 21 39  1  6     0  0
 40 33  2  0     0  0
 41 26  2  0     0  0
 42 36  1  0     0  0
 43 35  1  0     0  0
 44 34  1  0     0  0
 10  7  2  0     0  0
  6  5  2  0     0  0
 40 41  1  0     0  0
 11 19  1  0     0  0
 15 12  1  0     0  0
 30 43  1  0     0  0
M  END
>  <prID>
271

>  <IDDB>
82036

>  <pIC50_HIV_Integrase>
5.823908741

>  <Q>
-7.415164689

>  <Activity_Integrase>
Inactive_Integrase

NA
NA
NA
NA
$$$$

  Accelrys05311914332D 1   1.00000     0.00000     0

 42 46  0     0  0            999 V2000
    4.6667   -6.2167    0.0000 C   0  0  0  0  0  0           0  0  0
    4.6667   -7.0417    0.0000 C   0  0  0  0  0  0           0  0  0
    3.9458   -7.4500    0.0000 C   0  0  0  0  0  0           0  0  0
    3.9542   -5.8000    0.0000 C   0  0  0  0  0  0           0  0  0
    6.0916   -7.0500    0.0000 C   0  0  0  0  0  0           0  0  0
    6.1000   -6.2209    0.0000 C   0  0  0  0  0  0           0  0  0
    3.2417   -7.0334    0.0000 C   0  0  0  0  0  0           0  0  0
    5.3833   -5.8042    0.0000 C   0  0  0  0  0  0           0  0  0
    5.3750   -7.4625    0.0000 C   0  0  0  0  0  0           0  0  0
    3.2459   -6.2084    0.0000 C   0  0  0  0  0  0           0  0  0
    7.5292   -6.2334    0.0000 C   0  0  2  0  0  0           0  0  0
    6.8041   -7.4708    0.0000 C   0  0  2  0  0  0           0  0  0
    6.4026  -10.7285    0.0000 C   0  0  2  0  0  0           0  0  0
    6.8166   -5.8125    0.0000 C   0  0  0  0  0  0           0  0  0
    5.5802  -10.6631    0.0000 C   0  0  1  0  0  0           0  0  0
    6.5284   -9.3107    0.0000 C   0  0  1  0  0  0           0  0  0
    6.8784  -10.0514    0.0000 C   0  0  0  0  0  0           0  0  0
    5.7132   -9.2310    0.0000 O   0  0  0  0  0  0           0  0  0
    7.5292   -7.0626    0.0000 C   0  0  0  0  0  0           0  0  0
    5.2374   -9.9081    0.0000 C   0  0  1  0  0  0           0  0  0
    8.2500   -5.8250    0.0000 C   0  0  0  0  0  0           0  0  0
    6.8291   -8.3458    0.0000 O   0  0  0  0  0  0           0  0  0
    3.9542   -4.9750    0.0000 O   0  0  0  0  0  0           0  0  0
    3.9417   -8.2750    0.0000 O   0  0  0  0  0  0           0  0  0
    6.8106  -11.4160    0.0000 N   0  0  3  0  0  0           0  0  0
    2.5334   -7.4458    0.0000 C   0  0  0  0  0  0           0  0  0
    8.2542   -4.9958    0.0000 O   0  0  0  0  0  0           0  0  0
    5.3792   -4.9792    0.0000 O   0  0  0  0  0  0           0  0  0
    5.3708   -8.2833    0.0000 O   0  0  0  0  0  0           0  0  0
    8.2417   -6.6417    0.0000 O   0  0  0  0  0  0           0  0  0
    5.0949  -11.3391    0.0000 O   0  0  0  0  0  0           0  0  0
    2.5334   -5.7958    0.0000 C   0  0  0  0  0  0           0  0  0
    2.5334   -8.2708    0.0000 O   0  0  0  0  0  0           0  0  0
    8.9667   -6.2459    0.0000 C   0  0  0  0  0  0           0  0  0
    9.6792   -5.8333    0.0000 O   0  0  0  0  0  0           0  0  0
    4.4675   -9.7459    0.0000 C   0  0  0  0  0  0           0  0  0
    1.8208   -6.2084    0.0000 C   0  0  0  0  0  0           0  0  0
    1.8208   -7.0334    0.0000 C   0  0  0  0  0  0           0  0  0
    6.5237  -12.1789    0.0000 C   0  0  0  0  0  0           0  0  0
    7.5731  -11.4135    0.0000 C   0  0  0  0  0  0           0  0  0
    1.8166   -8.6792    0.0000 C   0  0  0  0  0  0           0  0  0
    7.3500   -9.3083    0.0000 H   0  0  0  0  0  0           0  0  0
  2  1  1  0     0  0
  3  2  1  0     0  0
  4  1  1  0     0  0
  5  9  1  0     0  0
  6  8  1  0     0  0
  7  3  1  0     0  0
  8  1  2  0     0  0
  9  2  2  0     0  0
 10  4  1  0     0  0
 11 14  1  0     0  0
 12  5  1  0     0  0
 13 17  1  0     0  0
 14  6  1  0     0  0
 15 20  1  0     0  0
 16 22  1  0     0  0
 17 16  1  0     0  0
 18 16  1  0     0  0
 19 12  1  0     0  0
 20 18  1  0     0  0
 11 21  1  1     0  0
 12 22  1  6     0  0
 23  4  2  0     0  0
 24  3  2  0     0  0
 13 25  1  6     0  0
 26  7  1  0     0  0
 27 21  2  0     0  0
 28  8  1  0     0  0
 29  9  1  0     0  0
 11 30  1  6     0  0
 15 31  1  6     0  0
 32 10  1  0     0  0
 33 26  1  0     0  0
 34 21  1  0     0  0
 35 34  1  0     0  0
 20 36  1  6     0  0
 37 32  2  0     0  0
 38 26  2  0     0  0
 39 25  1  0     0  0
 40 25  1  0     0  0
 41 33  1  0     0  0
 10  7  2  0     0  0
  6  5  2  0     0  0
 37 38  1  0     0  0
 11 19  1  0     0  0
 15 13  1  0     0  0
 16 42  1  6     0  0
M  END
>  <prID>
272

>  <IDDB>
82037

>  <pIC50_HIV_Integrase>
5.387216143

>  <Q>
-5.95601713

>  <Activity_Integrase>
Inactive_Integrase

NA
NA
NA
NA
$$$$

  Accelrys05311914332D 1   1.00000     0.00000     0

 17 19  0     0  0            999 V2000
    0.9000   -0.5375    0.0000 N   0  0  3  0  0  0           0  0  0
    0.0958   -0.7292    0.0000 C   0  0  0  0  0  0           0  0  0
   -0.5625   -0.2125    0.0000 C   0  0  0  0  0  0           0  0  0
    1.2583    0.2208    0.0000 C   0  0  3  0  0  0           0  0  0
    0.8875    0.9625    0.0000 C   0  0  0  0  0  0           0  0  0
    0.0792    1.1417    0.0000 S   0  0  0  0  0  0           0  0  0
   -0.5667    0.6208    0.0000 C   0  0  0  0  0  0           0  0  0
    2.0792    0.1167    0.0000 S   0  0  0  0  0  0           0  0  0
   -1.2792   -0.6250    0.0000 C   0  0  0  0  0  0           0  0  0
   -0.0833   -1.5333    0.0000 O   0  0  0  0  0  0           0  0  0
    1.3958    1.6167    0.0000 O   0  0  0  0  0  0           0  0  0
   -1.2833    1.0250    0.0000 C   0  0  0  0  0  0           0  0  0
    1.5083   -1.1042    0.0000 C   0  0  0  0  0  0           0  0  0
   -1.9958   -0.2125    0.0000 C   0  0  0  0  0  0           0  0  0
    2.2375   -0.7000    0.0000 C   0  0  0  0  0  0           0  0  0
   -1.9917    0.6125    0.0000 C   0  0  0  0  0  0           0  0  0
   -2.7125   -0.6167    0.0000 Cl  0  0  0  0  0  0           0  0  0
  2  1  1  0     0  0
  3  2  1  0     0  0
  4  1  1  0     0  0
  5  4  1  0     0  0
  6  5  1  0     0  0
  7  3  1  0     0  0
  8  4  1  0     0  0
  9  3  2  0     0  0
 10  2  2  0     0  0
 11  5  2  0     0  0
 12  7  2  0     0  0
 13  1  1  0     0  0
 14  9  1  0     0  0
 15 13  1  0     0  0
 16 14  2  0     0  0
 17 14  1  0     0  0
 15  8  1  0     0  0
  6  7  1  0     0  0
 16 12  1  0     0  0
M  END
>  <prID>
273

>  <IDDB>
85045

>  <pIC50_HIV_Integrase>
4.045757491

>  <Q>
0.69774892

>  <Activity_Integrase>
Inactive_Integrase

NA
NA
NA
NA
$$$$

  Accelrys05311914332D 1   1.00000     0.00000     0

 17 19  0     0  0            999 V2000
    0.9000   -0.5375    0.0000 N   0  0  3  0  0  0           0  0  0
    0.0958   -0.7292    0.0000 C   0  0  0  0  0  0           0  0  0
   -0.5625   -0.2125    0.0000 C   0  0  0  0  0  0           0  0  0
    1.2583    0.2208    0.0000 C   0  0  3  0  0  0           0  0  0
    0.8875    0.9625    0.0000 C   0  0  0  0  0  0           0  0  0
    0.0792    1.1417    0.0000 S   0  0  0  0  0  0           0  0  0
   -0.5667    0.6167    0.0000 C   0  0  0  0  0  0           0  0  0
    2.0792    0.1167    0.0000 S   0  0  0  0  0  0           0  0  0
   -1.2833   -0.6250    0.0000 C   0  0  0  0  0  0           0  0  0
   -0.0833   -1.5333    0.0000 O   0  0  0  0  0  0           0  0  0
    1.3958    1.6167    0.0000 O   0  0  0  0  0  0           0  0  0
   -1.2833    1.0250    0.0000 C   0  0  0  0  0  0           0  0  0
    1.5083   -1.1042    0.0000 C   0  0  0  0  0  0           0  0  0
   -1.9958   -0.2125    0.0000 C   0  0  0  0  0  0           0  0  0
    2.2375   -0.7000    0.0000 C   0  0  0  0  0  0           0  0  0
   -1.9917    0.6125    0.0000 C   0  0  0  0  0  0           0  0  0
   -2.7125   -0.6167    0.0000 Br  0  0  0  0  0  0           0  0  0
  2  1  1  0     0  0
  3  2  1  0     0  0
  4  1  1  0     0  0
  5  4  1  0     0  0
  6  5  1  0     0  0
  7  3  1  0     0  0
  8  4  1  0     0  0
  9  3  2  0     0  0
 10  2  2  0     0  0
 11  5  2  0     0  0
 12  7  2  0     0  0
 13  1  1  0     0  0
 14  9  1  0     0  0
 15 13  1  0     0  0
 16 14  2  0     0  0
 17 14  1  0     0  0
 15  8  1  0     0  0
  6  7  1  0     0  0
 16 12  1  0     0  0
M  END
>  <prID>
274

>  <IDDB>
85046

>  <pIC50_HIV_Integrase>
4.318758763

>  <Q>
1.620194073

>  <Activity_Integrase>
Inactive_Integrase

NA
NA
NA
NA
$$$$

  Accelrys05311914332D 1   1.00000     0.00000     0

 17 19  0     0  0            999 V2000
    0.9000   -0.5375    0.0000 N   0  0  3  0  0  0           0  0  0
    0.0958   -0.7292    0.0000 C   0  0  0  0  0  0           0  0  0
   -0.5625   -0.2125    0.0000 C   0  0  0  0  0  0           0  0  0
    1.2583    0.2208    0.0000 C   0  0  3  0  0  0           0  0  0
    0.8833    0.9625    0.0000 C   0  0  0  0  0  0           0  0  0
    0.0792    1.1417    0.0000 S   0  0  0  0  0  0           0  0  0
   -0.5667    0.6208    0.0000 C   0  0  0  0  0  0           0  0  0
    2.0792    0.1167    0.0000 S   0  0  0  0  0  0           0  0  0
   -1.2833   -0.6250    0.0000 C   0  0  0  0  0  0           0  0  0
   -0.0833   -1.5333    0.0000 O   0  0  0  0  0  0           0  0  0
    1.3958    1.6167    0.0000 O   0  0  0  0  0  0           0  0  0
   -1.2833    1.0250    0.0000 C   0  0  0  0  0  0           0  0  0
    1.5083   -1.1042    0.0000 C   0  0  0  0  0  0           0  0  0
   -1.9958   -0.2125    0.0000 C   0  0  0  0  0  0           0  0  0
    2.2375   -0.7000    0.0000 C   0  0  0  0  0  0           0  0  0
   -1.9958    0.6167    0.0000 C   0  0  0  0  0  0           0  0  0
   -2.7083   -0.6250    0.0000 C   0  0  0  0  0  0           0  0  0
  2  1  1  0     0  0
  3  2  1  0     0  0
  4  1  1  0     0  0
  5  4  1  0     0  0
  6  5  1  0     0  0
  7  3  1  0     0  0
  8  4  1  0     0  0
  9  3  2  0     0  0
 10  2  2  0     0  0
 11  5  2  0     0  0
 12  7  2  0     0  0
 13  1  1  0     0  0
 14  9  1  0     0  0
 15 13  1  0     0  0
 16 14  2  0     0  0
 17 14  1  0     0  0
 15  8  1  0     0  0
  6  7  1  0     0  0
 16 12  1  0     0  0
M  END
>  <prID>
275

>  <IDDB>
85047

>  <pIC50_HIV_Integrase>
4.259637311

>  <Q>
1.464470806

>  <Activity_Integrase>
Inactive_Integrase

NA
NA
NA
NA
$$$$

  Accelrys05311914332D 1   1.00000     0.00000     0

 16 18  0     0  0            999 V2000
    0.7333   -0.5750    0.0000 N   0  0  3  0  0  0           0  0  0
   -0.0750   -0.7667    0.0000 C   0  0  0  0  0  0           0  0  0
    1.0875    0.1792    0.0000 C   0  0  3  0  0  0           0  0  0
    0.7167    0.9250    0.0000 C   0  0  0  0  0  0           0  0  0
   -0.7333   -0.2500    0.0000 C   0  0  0  0  0  0           0  0  0
   -0.0917    1.1000    0.0000 S   0  0  0  0  0  0           0  0  0
   -0.7375    0.5792    0.0000 C   0  0  0  0  0  0           0  0  0
    1.3375   -1.1417    0.0000 C   0  0  0  0  0  0           0  0  0
    2.0708   -0.7417    0.0000 S   0  0  0  0  0  0           0  0  0
   -0.2542   -1.5750    0.0000 O   0  0  0  0  0  0           0  0  0
    1.2250    1.5750    0.0000 O   0  0  0  0  0  0           0  0  0
    1.9125    0.0750    0.0000 C   0  0  0  0  0  0           0  0  0
   -1.4500   -0.6667    0.0000 C   0  0  0  0  0  0           0  0  0
   -1.4500    0.9875    0.0000 C   0  0  0  0  0  0           0  0  0
   -2.1625   -0.2542    0.0000 C   0  0  0  0  0  0           0  0  0
   -2.1625    0.5750    0.0000 C   0  0  0  0  0  0           0  0  0
  2  1  1  0     0  0
  3  1  1  0     0  0
  4  3  1  0     0  0
  5  2  1  0     0  0
  6  4  1  0     0  0
  7  5  1  0     0  0
  8  1  1  0     0  0
  9  8  1  0     0  0
 10  2  2  0     0  0
 11  4  2  0     0  0
 12  3  1  0     0  0
 13  5  2  0     0  0
 14  7  2  0     0  0
 15 13  1  0     0  0
 16 15  2  0     0  0
  9 12  1  0     0  0
  7  6  1  0     0  0
 16 14  1  0     0  0
M  END
>  <prID>
276

>  <IDDB>
85048

>  <pIC50_HIV_Integrase>
3.643974143

>  <Q>
1.530011548

>  <Activity_Integrase>
Inactive_Integrase

NA
NA
NA
NA
$$$$

  Accelrys05311914332D 1   1.00000     0.00000     0

 17 19  0     0  0            999 V2000
    0.9000   -0.5375    0.0000 N   0  0  3  0  0  0           0  0  0
    0.0958   -0.7292    0.0000 C   0  0  0  0  0  0           0  0  0
   -0.5625   -0.2125    0.0000 C   0  0  0  0  0  0           0  0  0
    1.2583    0.2208    0.0000 C   0  0  3  0  0  0           0  0  0
    0.8875    0.9625    0.0000 C   0  0  0  0  0  0           0  0  0
    0.0792    1.1417    0.0000 S   0  0  0  0  0  0           0  0  0
   -0.5667    0.6167    0.0000 C   0  0  0  0  0  0           0  0  0
    1.5083   -1.1042    0.0000 C   0  0  0  0  0  0           0  0  0
    2.2375   -0.7000    0.0000 S   0  0  0  0  0  0           0  0  0
   -1.2833   -0.6250    0.0000 C   0  0  0  0  0  0           0  0  0
   -0.0833   -1.5333    0.0000 O   0  0  0  0  0  0           0  0  0
    1.3958    1.6167    0.0000 O   0  0  0  0  0  0           0  0  0
   -1.2833    1.0250    0.0000 C   0  0  0  0  0  0           0  0  0
    2.0792    0.1167    0.0000 C   0  0  0  0  0  0           0  0  0
   -1.9958   -0.2125    0.0000 C   0  0  0  0  0  0           0  0  0
   -1.9917    0.6125    0.0000 C   0  0  0  0  0  0           0  0  0
   -2.7125   -0.6167    0.0000 Cl  0  0  0  0  0  0           0  0  0
  2  1  1  0     0  0
  3  2  1  0     0  0
  4  1  1  0     0  0
  5  4  1  0     0  0
  6  5  1  0     0  0
  7  3  1  0     0  0
  8  1  1  0     0  0
  9  8  1  0     0  0
 10  3  2  0     0  0
 11  2  2  0     0  0
 12  5  2  0     0  0
 13  7  2  0     0  0
 14  4  1  0     0  0
 15 10  1  0     0  0
 16 15  2  0     0  0
 17 15  1  0     0  0
  9 14  1  0     0  0
  6  7  1  0     0  0
 16 13  1  0     0  0
M  END
>  <prID>
277

>  <IDDB>
85049

>  <pIC50_HIV_Integrase>
3.869666232

>  <Q>
0.582456806

>  <Activity_Integrase>
Inactive_Integrase

NA
NA
NA
NA
$$$$

  Accelrys05311914332D 1   1.00000     0.00000     0

 17 19  0     0  0            999 V2000
    0.9000   -0.5375    0.0000 N   0  0  3  0  0  0           0  0  0
    0.0958   -0.7292    0.0000 C   0  0  0  0  0  0           0  0  0
   -0.5625   -0.2125    0.0000 C   0  0  0  0  0  0           0  0  0
    1.2583    0.2208    0.0000 C   0  0  3  0  0  0           0  0  0
    0.8875    0.9625    0.0000 C   0  0  0  0  0  0           0  0  0
    0.0792    1.1417    0.0000 S   0  0  0  0  0  0           0  0  0
   -0.5667    0.6167    0.0000 C   0  0  0  0  0  0           0  0  0
    1.5083   -1.1042    0.0000 C   0  0  0  0  0  0           0  0  0
    2.2375   -0.7000    0.0000 S   0  0  0  0  0  0           0  0  0
   -1.2833   -0.6250    0.0000 C   0  0  0  0  0  0           0  0  0
   -0.0833   -1.5333    0.0000 O   0  0  0  0  0  0           0  0  0
    1.3958    1.6167    0.0000 O   0  0  0  0  0  0           0  0  0
   -1.2833    1.0250    0.0000 C   0  0  0  0  0  0           0  0  0
    2.0792    0.1167    0.0000 C   0  0  0  0  0  0           0  0  0
   -1.9958   -0.2125    0.0000 C   0  0  0  0  0  0           0  0  0
   -1.9917    0.6125    0.0000 C   0  0  0  0  0  0           0  0  0
   -2.7125   -0.6167    0.0000 Br  0  0  0  0  0  0           0  0  0
  2  1  1  0     0  0
  3  2  1  0     0  0
  4  1  1  0     0  0
  5  4  1  0     0  0
  6  5  1  0     0  0
  7  3  1  0     0  0
  8  1  1  0     0  0
  9  8  1  0     0  0
 10  3  2  0     0  0
 11  2  2  0     0  0
 12  5  2  0     0  0
 13  7  2  0     0  0
 14  4  1  0     0  0
 15 10  1  0     0  0
 16 15  2  0     0  0
 17 15  1  0     0  0
  9 14  1  0     0  0
  6  7  1  0     0  0
 16 13  1  0     0  0
M  END
>  <prID>
278

>  <IDDB>
85050

>  <pIC50_HIV_Integrase>
4.13076828

>  <Q>
1.504901931

>  <Activity_Integrase>
Inactive_Integrase

NA
NA
NA
NA
$$$$

  Accelrys05311914332D 1   1.00000     0.00000     0

 17 19  0     0  0            999 V2000
    0.9000   -0.5375    0.0000 N   0  0  3  0  0  0           0  0  0
    0.0958   -0.7292    0.0000 C   0  0  0  0  0  0           0  0  0
   -0.5625   -0.2125    0.0000 C   0  0  0  0  0  0           0  0  0
    1.2583    0.2208    0.0000 C   0  0  3  0  0  0           0  0  0
    0.8875    0.9625    0.0000 C   0  0  0  0  0  0           0  0  0
    0.0792    1.1417    0.0000 S   0  0  0  0  0  0           0  0  0
   -0.5667    0.6167    0.0000 C   0  0  0  0  0  0           0  0  0
    1.5083   -1.1042    0.0000 C   0  0  0  0  0  0           0  0  0
    2.2375   -0.7000    0.0000 S   0  0  0  0  0  0           0  0  0
   -1.2833   -0.6250    0.0000 C   0  0  0  0  0  0           0  0  0
   -0.0833   -1.5333    0.0000 O   0  0  0  0  0  0           0  0  0
    1.3958    1.6167    0.0000 O   0  0  0  0  0  0           0  0  0
   -1.2833    1.0250    0.0000 C   0  0  0  0  0  0           0  0  0
    2.0792    0.1167    0.0000 C   0  0  0  0  0  0           0  0  0
   -1.9958   -0.2125    0.0000 C   0  0  0  0  0  0           0  0  0
   -1.9917    0.6125    0.0000 C   0  0  0  0  0  0           0  0  0
   -2.7125   -0.6167    0.0000 C   0  0  0  0  0  0           0  0  0
  2  1  1  0     0  0
  3  2  1  0     0  0
  4  1  1  0     0  0
  5  4  1  0     0  0
  6  5  1  0     0  0
  7  3  1  0     0  0
  8  1  1  0     0  0
  9  8  1  0     0  0
 10  3  2  0     0  0
 11  2  2  0     0  0
 12  5  2  0     0  0
 13  7  2  0     0  0
 14  4  1  0     0  0
 15 10  1  0     0  0
 16 15  2  0     0  0
 17 15  1  0     0  0
  9 14  1  0     0  0
  6  7  1  0     0  0
 16 13  1  0     0  0
M  END
>  <prID>
279

>  <IDDB>
85051

>  <pIC50_HIV_Integrase>
4.200659451

>  <Q>
1.349178647

>  <Activity_Integrase>
Inactive_Integrase

NA
NA
NA
NA
$$$$

  Accelrys05311914332D 1   1.00000     0.00000     0

 19 21  0     0  0            999 V2000
    1.2250   -0.7542    0.0000 N   0  0  3  0  0  0           0  0  0
    0.4167   -0.9458    0.0000 C   0  0  0  0  0  0           0  0  0
   -0.2417   -0.4292    0.0000 C   0  0  0  0  0  0           0  0  0
    1.5792    0.0000    0.0000 C   0  0  3  0  0  0           0  0  0
    1.2083    0.7458    0.0000 C   0  0  0  0  0  0           0  0  0
   -0.2417    0.4000    0.0000 C   0  0  0  0  0  0           0  0  0
    0.4000    0.9208    0.0000 S   0  0  0  0  0  0           0  0  0
   -2.3875    0.8125    0.0000 N   0  3  0  0  0  0           0  0  0
   -0.9583    0.8083    0.0000 C   0  0  0  0  0  0           0  0  0
   -1.6708    0.4000    0.0000 C   0  0  0  0  0  0           0  0  0
   -0.9583   -0.8417    0.0000 C   0  0  0  0  0  0           0  0  0
    1.8333   -1.3208    0.0000 C   0  0  0  0  0  0           0  0  0
    2.5625   -0.9167    0.0000 S   0  0  0  0  0  0           0  0  0
    0.2375   -1.7500    0.0000 O   0  0  0  0  0  0           0  0  0
   -2.3875    1.6417    0.0000 O   0  5  0  0  0  0           0  0  0
   -3.1042    0.4000    0.0000 O   0  0  0  0  0  0           0  0  0
    1.7167    1.4000    0.0000 O   0  0  0  0  0  0           0  0  0
   -1.6708   -0.4292    0.0000 C   0  0  0  0  0  0           0  0  0
    2.4042   -0.1000    0.0000 C   0  0  0  0  0  0           0  0  0
  2  1  1  0     0  0
  3  2  1  0     0  0
  4  1  1  0     0  0
  5  4  1  0     0  0
  6  3  1  0     0  0
  7  5  1  0     0  0
  8 10  1  0     0  0
  9  6  2  0     0  0
 10 18  2  0     0  0
 11  3  2  0     0  0
 12  1  1  0     0  0
 13 12  1  0     0  0
 14  2  2  0     0  0
 15  8  1  0     0  0
 16  8  2  0     0  0
 17  5  2  0     0  0
 18 11  1  0     0  0
 19  4  1  0     0  0
 13 19  1  0     0  0
  7  6  1  0     0  0
 10  9  1  0     0  0
M  CHG  2   8   1  15  -1
M  END
>  <prID>
280

>  <IDDB>
85052

>  <pIC50_HIV_Integrase>
4

>  <Q>
1.339769386

>  <Activity_Integrase>
Inactive_Integrase

NA
NA
NA
NA
$$$$

  Accelrys05311914332D 1   1.00000     0.00000     0

 18 20  0     0  0            999 V2000
    1.0917   -0.5208    0.0000 N   0  0  3  0  0  0           0  0  0
    0.2833   -0.7167    0.0000 C   0  0  0  0  0  0           0  0  0
   -0.3750   -0.2000    0.0000 C   0  0  0  0  0  0           0  0  0
    1.4458    0.2292    0.0000 C   0  0  3  0  0  0           0  0  0
    1.0792    0.9750    0.0000 C   0  0  0  0  0  0           0  0  0
    0.2667    1.1500    0.0000 S   0  0  0  0  0  0           0  0  0
   -0.3750    0.6292    0.0000 C   0  0  0  0  0  0           0  0  0
    1.7000   -1.0958    0.0000 C   0  0  0  0  0  0           0  0  0
    2.4292   -0.6917    0.0000 S   0  0  0  0  0  0           0  0  0
   -1.0875   -0.6167    0.0000 C   0  0  0  0  0  0           0  0  0
    0.1083   -1.5208    0.0000 O   0  0  0  0  0  0           0  0  0
    1.5833    1.6250    0.0000 O   0  0  0  0  0  0           0  0  0
   -1.0917    1.0375    0.0000 C   0  0  0  0  0  0           0  0  0
    2.2750    0.1250    0.0000 C   0  0  0  0  0  0           0  0  0
   -1.8042   -0.2000    0.0000 C   0  0  0  0  0  0           0  0  0
   -1.8000    0.6250    0.0000 C   0  0  0  0  0  0           0  0  0
   -2.5208   -0.6083    0.0000 O   0  0  0  0  0  0           0  0  0
   -3.2333   -0.1875    0.0000 C   0  0  0  0  0  0           0  0  0
  2  1  1  0     0  0
  3  2  1  0     0  0
  4  1  1  0     0  0
  5  4  1  0     0  0
  6  5  1  0     0  0
  7  3  1  0     0  0
  8  1  1  0     0  0
  9  8  1  0     0  0
 10  3  2  0     0  0
 11  2  2  0     0  0
 12  5  2  0     0  0
 13  7  2  0     0  0
 14  4  1  0     0  0
 15 10  1  0     0  0
 16 15  2  0     0  0
 17 15  1  0     0  0
 18 17  1  0     0  0
  9 14  1  0     0  0
  6  7  1  0     0  0
 16 13  1  0     0  0
M  END
>  <prID>
281

>  <IDDB>
85053

>  <pIC50_HIV_Integrase>
3.698970004

>  <Q>
1.273389614

>  <Activity_Integrase>
Inactive_Integrase

NA
NA
NA
NA
$$$$

  Accelrys05311914332D 1   1.00000     0.00000     0

 20 22  0     0  0            999 V2000
    1.3417   -0.6667    0.0000 N   0  0  3  0  0  0           0  0  0
    0.5375   -0.8583    0.0000 C   0  0  0  0  0  0           0  0  0
   -0.1208   -0.3417    0.0000 C   0  0  0  0  0  0           0  0  0
    1.7000    0.0833    0.0000 C   0  0  3  0  0  0           0  0  0
    1.3292    0.8292    0.0000 C   0  0  0  0  0  0           0  0  0
   -0.1250    0.4833    0.0000 C   0  0  0  0  0  0           0  0  0
    0.5167    1.0042    0.0000 S   0  0  0  0  0  0           0  0  0
   -0.8375   -0.7583    0.0000 C   0  0  0  0  0  0           0  0  0
   -0.8417    0.8958    0.0000 C   0  0  0  0  0  0           0  0  0
   -1.5542   -0.3458    0.0000 C   0  0  0  0  0  0           0  0  0
   -1.5500    0.4833    0.0000 C   0  0  0  0  0  0           0  0  0
    1.9500   -1.2375    0.0000 C   0  0  0  0  0  0           0  0  0
    2.6792   -0.8375    0.0000 S   0  0  0  0  0  0           0  0  0
    0.3583   -1.6667    0.0000 O   0  0  0  0  0  0           0  0  0
    1.8375    1.4833    0.0000 O   0  0  0  0  0  0           0  0  0
    2.5208   -0.0167    0.0000 C   0  0  0  0  0  0           0  0  0
   -2.2667   -0.7583    0.0000 O   0  0  0  0  0  0           0  0  0
   -2.2667    0.8958    0.0000 O   0  0  0  0  0  0           0  0  0
   -2.9833   -0.3458    0.0000 C   0  0  0  0  0  0           0  0  0
   -2.2667    1.7208    0.0000 C   0  0  0  0  0  0           0  0  0
  2  1  1  0     0  0
  3  2  1  0     0  0
  4  1  1  0     0  0
  5  4  1  0     0  0
  6  3  1  0     0  0
  7  5  1  0     0  0
  8  3  2  0     0  0
  9  6  2  0     0  0
 10  8  1  0     0  0
 11 10  2  0     0  0
 12  1  1  0     0  0
 13 12  1  0     0  0
 14  2  2  0     0  0
 15  5  2  0     0  0
 16  4  1  0     0  0
 17 10  1  0     0  0
 18 11  1  0     0  0
 19 17  1  0     0  0
 20 18  1  0     0  0
 13 16  1  0     0  0
  7  6  1  0     0  0
 11  9  1  0     0  0
M  END
>  <prID>
282

>  <IDDB>
85054

>  <pIC50_HIV_Integrase>
3.4798442365

>  <Q>
1.044135732

>  <Activity_Integrase>
Inactive_Integrase

NA
NA
NA
NA
$$$$

  Accelrys05311914332D 1   1.00000     0.00000     0

 17 19  0     0  0            999 V2000
   -0.2083   -0.7167    0.0000 C   0  0  0  0  0  0           0  0  0
    0.6000   -0.5292    0.0000 N   0  0  3  0  0  0           0  0  0
   -0.8667   -0.2042    0.0000 C   0  0  0  0  0  0           0  0  0
    0.5833    0.9708    0.0000 C   0  0  0  0  0  0           0  0  0
   -0.2208    1.1458    0.0000 S   0  0  0  0  0  0           0  0  0
    0.9542    0.2292    0.0000 C   0  0  3  0  0  0           0  0  0
   -0.8667    0.6250    0.0000 C   0  0  0  0  0  0           0  0  0
   -0.3833   -1.5250    0.0000 O   0  0  0  0  0  0           0  0  0
    1.0917    1.6208    0.0000 O   0  0  0  0  0  0           0  0  0
    1.0792   -1.2083    0.0000 C   0  0  0  0  0  0           0  0  0
   -1.5833   -0.6167    0.0000 C   0  0  0  0  0  0           0  0  0
    1.7833    0.3083    0.0000 C   0  0  0  0  0  0           0  0  0
   -1.5833    1.0333    0.0000 C   0  0  0  0  0  0           0  0  0
    1.9125   -1.1375    0.0000 C   0  0  0  0  0  0           0  0  0
   -2.2958   -0.2042    0.0000 C   0  0  0  0  0  0           0  0  0
    2.2625   -0.3792    0.0000 C   0  0  0  0  0  0           0  0  0
   -2.2958    0.6208    0.0000 C   0  0  0  0  0  0           0  0  0
  2  1  1  0     0  0
  3  1  1  0     0  0
  4  6  1  0     0  0
  5  7  1  0     0  0
  6  2  1  0     0  0
  7  3  1  0     0  0
  8  1  2  0     0  0
  9  4  2  0     0  0
 10  2  1  0     0  0
 11  3  2  0     0  0
 12  6  1  0     0  0
 13  7  2  0     0  0
 14 10  1  0     0  0
 15 11  1  0     0  0
 16 14  1  0     0  0
 17 15  2  0     0  0
  5  4  1  0     0  0
 17 13  1  0     0  0
 16 12  1  0     0  0
M  END
>  <prID>
283

>  <IDDB>
85057

>  <pIC50_HIV_Integrase>
3.46470588

>  <Q>
0.235746169

>  <Activity_Integrase>
Inactive_Integrase

NA
NA
NA
NA
$$$$

  Accelrys05311914332D 1   1.00000     0.00000     0

 18 20  0     0  0            999 V2000
    0.7583   -0.5750    0.0000 N   0  0  3  0  0  0           0  0  0
    1.1083    0.1792    0.0000 C   0  0  3  0  0  0           0  0  0
   -0.0542   -0.7667    0.0000 C   0  0  0  0  0  0           0  0  0
    0.7375    0.9208    0.0000 C   0  0  0  0  0  0           0  0  0
   -0.7125   -0.2500    0.0000 C   0  0  0  0  0  0           0  0  0
    1.9375    0.0750    0.0000 S   0  0  3  0  0  0           0  0  0
   -0.0667    1.1000    0.0000 S   0  0  0  0  0  0           0  0  0
   -0.7125    0.5792    0.0000 C   0  0  0  0  0  0           0  0  0
    1.3625   -1.1417    0.0000 C   0  0  0  0  0  0           0  0  0
    2.0917   -0.7417    0.0000 C   0  0  0  0  0  0           0  0  0
   -1.4250   -0.6667    0.0000 C   0  0  0  0  0  0           0  0  0
   -0.2292   -1.5750    0.0000 O   0  0  0  0  0  0           0  0  0
    1.2458    1.5750    0.0000 O   0  0  0  0  0  0           0  0  0
    2.5000    0.6792    0.0000 O   0  0  0  0  0  0           0  0  0
   -1.4292    0.9875    0.0000 C   0  0  0  0  0  0           0  0  0
   -2.1417   -0.2542    0.0000 C   0  0  0  0  0  0           0  0  0
   -2.1417    0.5750    0.0000 C   0  0  0  0  0  0           0  0  0
   -2.8583   -0.6625    0.0000 C   0  0  0  0  0  0           0  0  0
  2  1  1  0     0  0
  3  1  1  0     0  0
  4  2  1  0     0  0
  5  3  1  0     0  0
  6  2  1  0     0  0
  7  4  1  0     0  0
  8  5  1  0     0  0
  9  1  1  0     0  0
 10  9  1  0     0  0
 11  5  2  0     0  0
 12  3  2  0     0  0
 13  4  2  0     0  0
 14  6  2  0     0  0
 15  8  2  0     0  0
 16 11  1  0     0  0
 17 16  2  0     0  0
 18 16  1  0     0  0
 10  6  1  0     0  0
  8  7  1  0     0  0
 17 15  1  0     0  0
M  END
>  <prID>
284

>  <IDDB>
85058

>  <pIC50_HIV_Integrase>
3.229147988

>  <Q>
0.622366914

>  <Activity_Integrase>
Inactive_Integrase

NA
NA
NA
NA
$$$$

  Accelrys05311914332D 1   1.00000     0.00000     0

 17 19  0     0  0            999 V2000
    0.5708   -0.5042    0.0000 N   0  0  3  0  0  0           0  0  0
    0.9208    0.2458    0.0000 C   0  0  3  0  0  0           0  0  0
   -0.2417   -0.7000    0.0000 C   0  0  0  0  0  0           0  0  0
    0.5542    0.9917    0.0000 C   0  0  0  0  0  0           0  0  0
   -0.9000   -0.1792    0.0000 C   0  0  0  0  0  0           0  0  0
   -0.2542    1.1667    0.0000 S   0  0  0  0  0  0           0  0  0
    1.9042   -0.6750    0.0000 S   0  0  3  0  0  0           0  0  0
    1.1792   -1.0750    0.0000 C   0  0  0  0  0  0           0  0  0
   -0.9000    0.6458    0.0000 C   0  0  0  0  0  0           0  0  0
    1.7500    0.1417    0.0000 C   0  0  0  0  0  0           0  0  0
   -0.4167   -1.5042    0.0000 O   0  0  0  0  0  0           0  0  0
    2.6167   -1.0792    0.0000 O   0  0  0  0  0  0           0  0  0
    1.0583    1.6417    0.0000 O   0  0  0  0  0  0           0  0  0
   -1.6125   -0.6000    0.0000 C   0  0  0  0  0  0           0  0  0
   -1.6167    1.0583    0.0000 C   0  0  0  0  0  0           0  0  0
   -2.3250   -0.1833    0.0000 C   0  0  0  0  0  0           0  0  0
   -2.3250    0.6417    0.0000 C   0  0  0  0  0  0           0  0  0
  2  1  1  0     0  0
  3  1  1  0     0  0
  4  2  1  0     0  0
  5  3  1  0     0  0
  6  4  1  0     0  0
  7  8  1  0     0  0
  8  1  1  0     0  0
  9  5  1  0     0  0
 10  2  1  0     0  0
 11  3  2  0     0  0
 12  7  2  0     0  0
 13  4  2  0     0  0
 14  5  2  0     0  0
 15  9  2  0     0  0
 16 14  1  0     0  0
 17 16  2  0     0  0
  7 10  1  0     0  0
  9  6  1  0     0  0
 17 15  1  0     0  0
M  END
>  <prID>
285

>  <IDDB>
85059

>  <pIC50_HIV_Integrase>
3.6610460325

>  <Q>
0.726724431

>  <Activity_Integrase>
Inactive_Integrase

NA
NA
NA
NA
$$$$

  Accelrys05311914332D 1   1.00000     0.00000     0

 18 20  0     0  0            999 V2000
    0.7375   -0.4750    0.0000 N   0  0  3  0  0  0           0  0  0
   -0.0708   -0.6667    0.0000 C   0  0  0  0  0  0           0  0  0
    1.0917    0.2833    0.0000 C   0  0  3  0  0  0           0  0  0
   -0.7292   -0.1500    0.0000 C   0  0  0  0  0  0           0  0  0
    0.7208    1.0250    0.0000 C   0  0  0  0  0  0           0  0  0
   -0.0833    1.2000    0.0000 S   0  0  0  0  0  0           0  0  0
    2.0750   -0.6375    0.0000 S   0  0  3  0  0  0           0  0  0
    1.3458   -1.0417    0.0000 C   0  0  0  0  0  0           0  0  0
   -0.7292    0.6792    0.0000 C   0  0  0  0  0  0           0  0  0
    1.9167    0.1792    0.0000 C   0  0  0  0  0  0           0  0  0
   -1.4417   -0.5625    0.0000 C   0  0  0  0  0  0           0  0  0
   -0.2458   -1.4708    0.0000 O   0  0  0  0  0  0           0  0  0
    2.7833   -1.0500    0.0000 O   0  0  0  0  0  0           0  0  0
    1.2292    1.6750    0.0000 O   0  0  0  0  0  0           0  0  0
   -1.4458    1.0875    0.0000 C   0  0  0  0  0  0           0  0  0
   -2.1583   -0.1542    0.0000 C   0  0  0  0  0  0           0  0  0
   -2.1583    0.6750    0.0000 C   0  0  0  0  0  0           0  0  0
   -2.8792   -0.5583    0.0000 Cl  0  0  0  0  0  0           0  0  0
  2  1  1  0     0  0
  3  1  1  0     0  0
  4  2  1  0     0  0
  5  3  1  0     0  0
  6  5  1  0     0  0
  7  8  1  0     0  0
  8  1  1  0     0  0
  9  4  1  0     0  0
 10  3  1  0     0  0
 11  4  2  0     0  0
 12  2  2  0     0  0
 13  7  2  0     0  0
 14  5  2  0     0  0
 15  9  2  0     0  0
 16 11  1  0     0  0
 17 16  2  0     0  0
 18 16  1  0     0  0
  7 10  1  0     0  0
  9  6  1  0     0  0
 17 15  1  0     0  0
M  END
>  <prID>
286

>  <IDDB>
85060

>  <pIC50_HIV_Integrase>
3.619788758

>  <Q>
-0.220830303

>  <Activity_Integrase>
Inactive_Integrase

NA
NA
NA
NA
$$$$

  Accelrys05311914332D 1   1.00000     0.00000     0

 19 21  0     0  0            999 V2000
    0.9292   -0.4667    0.0000 N   0  0  3  0  0  0           0  0  0
    0.1167   -0.6583    0.0000 C   0  0  0  0  0  0           0  0  0
    1.2792    0.2875    0.0000 C   0  0  3  0  0  0           0  0  0
   -0.5417   -0.1417    0.0000 C   0  0  0  0  0  0           0  0  0
    0.9125    1.0333    0.0000 C   0  0  0  0  0  0           0  0  0
    0.1000    1.2083    0.0000 S   0  0  0  0  0  0           0  0  0
    2.2625   -0.6333    0.0000 S   0  0  3  0  0  0           0  0  0
    1.5375   -1.0375    0.0000 C   0  0  0  0  0  0           0  0  0
   -0.5417    0.6875    0.0000 C   0  0  0  0  0  0           0  0  0
    2.1083    0.1833    0.0000 C   0  0  0  0  0  0           0  0  0
   -1.2542   -0.5583    0.0000 C   0  0  0  0  0  0           0  0  0
   -0.0583   -1.4625    0.0000 O   0  0  0  0  0  0           0  0  0
    2.9750   -1.0417    0.0000 O   0  0  0  0  0  0           0  0  0
    1.4167    1.6833    0.0000 O   0  0  0  0  0  0           0  0  0
   -1.2583    1.0958    0.0000 C   0  0  0  0  0  0           0  0  0
   -1.9708   -0.1417    0.0000 C   0  0  0  0  0  0           0  0  0
   -1.9667    0.6833    0.0000 C   0  0  0  0  0  0           0  0  0
   -2.6875   -0.5500    0.0000 O   0  0  0  0  0  0           0  0  0
   -3.4000   -0.1333    0.0000 C   0  0  0  0  0  0           0  0  0
  2  1  1  0     0  0
  3  1  1  0     0  0
  4  2  1  0     0  0
  5  3  1  0     0  0
  6  5  1  0     0  0
  7  8  1  0     0  0
  8  1  1  0     0  0
  9  4  1  0     0  0
 10  3  1  0     0  0
 11  4  2  0     0  0
 12  2  2  0     0  0
 13  7  2  0     0  0
 14  5  2  0     0  0
 15  9  2  0     0  0
 16 11  1  0     0  0
 17 16  2  0     0  0
 18 16  1  0     0  0
 19 18  1  0     0  0
  7 10  1  0     0  0
  9  6  1  0     0  0
 17 15  1  0     0  0
M  END
>  <prID>
287

>  <IDDB>
85061

>  <pIC50_HIV_Integrase>
3.847711656

>  <Q>
0.470102545

>  <Activity_Integrase>
Inactive_Integrase

NA
NA
NA
NA
$$$$

  Accelrys05311914332D 1   1.00000     0.00000     0

 20 23  0     0  0            999 V2000
    1.3792   -0.6042    0.0000 N   0  0  3  0  0  0           0  0  0
    0.5708   -0.8000    0.0000 C   0  0  0  0  0  0           0  0  0
   -0.0875   -0.2792    0.0000 C   0  0  0  0  0  0           0  0  0
    1.7333    0.1458    0.0000 C   0  0  3  0  0  0           0  0  0
    1.3625    0.8917    0.0000 C   0  0  0  0  0  0           0  0  0
   -0.0875    0.5458    0.0000 C   0  0  0  0  0  0           0  0  0
    0.5542    1.0667    0.0000 S   0  0  0  0  0  0           0  0  0
   -0.8000   -0.7000    0.0000 C   0  0  0  0  0  0           0  0  0
   -0.8042    0.9583    0.0000 C   0  0  0  0  0  0           0  0  0
    2.5583    0.0417    0.0000 S   0  0  0  0  0  0           0  0  0
   -1.5208   -0.2833    0.0000 C   0  0  0  0  0  0           0  0  0
    0.3958   -1.6042    0.0000 O   0  0  0  0  0  0           0  0  0
   -1.5167    0.5417    0.0000 C   0  0  0  0  0  0           0  0  0
    1.8708    1.5417    0.0000 O   0  0  0  0  0  0           0  0  0
    1.9875   -1.1750    0.0000 C   0  0  0  0  0  0           0  0  0
    2.7167   -0.7750    0.0000 C   0  0  0  0  0  0           0  0  0
   -2.2292   -0.6958    0.0000 C   0  0  0  0  0  0           0  0  0
   -2.2292    0.9542    0.0000 C   0  0  0  0  0  0           0  0  0
   -2.9417   -0.2833    0.0000 C   0  0  0  0  0  0           0  0  0
   -2.9417    0.5417    0.0000 C   0  0  0  0  0  0           0  0  0
  2  1  1  0     0  0
  3  2  1  0     0  0
  4  1  1  0     0  0
  5  4  1  0     0  0
  6  3  1  0     0  0
  7  5  1  0     0  0
  8  3  2  0     0  0
  9  6  2  0     0  0
 10  4  1  0     0  0
 11  8  1  0     0  0
 12  2  2  0     0  0
 13 11  1  0     0  0
 14  5  2  0     0  0
 15  1  1  0     0  0
 16 15  1  0     0  0
 17 11  2  0     0  0
 18 13  2  0     0  0
 19 17  1  0     0  0
 20 18  1  0     0  0
 16 10  1  0     0  0
  7  6  1  0     0  0
 13  9  1  0     0  0
 20 19  2  0     0  0
M  END
>  <prID>
288

>  <IDDB>
85062

>  <pIC50_HIV_Integrase>
4.327902142

>  <Q>
2.045387752

>  <Activity_Integrase>
Inactive_Integrase

NA
NA
NA
NA
$$$$

  Accelrys05311914332D 1   1.00000     0.00000     0

 20 23  0     0  0            999 V2000
    1.3792   -0.6042    0.0000 N   0  0  3  0  0  0           0  0  0
    0.5708   -0.8000    0.0000 C   0  0  0  0  0  0           0  0  0
   -0.0875   -0.2792    0.0000 C   0  0  0  0  0  0           0  0  0
    1.7333    0.1458    0.0000 C   0  0  3  0  0  0           0  0  0
    1.3625    0.8917    0.0000 C   0  0  0  0  0  0           0  0  0
   -0.0875    0.5458    0.0000 C   0  0  0  0  0  0           0  0  0
    0.5542    1.0667    0.0000 S   0  0  0  0  0  0           0  0  0
   -0.8000   -0.7000    0.0000 C   0  0  0  0  0  0           0  0  0
   -0.8042    0.9583    0.0000 C   0  0  0  0  0  0           0  0  0
    1.9875   -1.1750    0.0000 C   0  0  0  0  0  0           0  0  0
    2.7167   -0.7750    0.0000 S   0  0  0  0  0  0           0  0  0
   -1.5208   -0.2833    0.0000 C   0  0  0  0  0  0           0  0  0
    0.3958   -1.6042    0.0000 O   0  0  0  0  0  0           0  0  0
   -1.5167    0.5417    0.0000 C   0  0  0  0  0  0           0  0  0
    1.8708    1.5417    0.0000 O   0  0  0  0  0  0           0  0  0
    2.5583    0.0417    0.0000 C   0  0  0  0  0  0           0  0  0
   -2.2292   -0.6958    0.0000 C   0  0  0  0  0  0           0  0  0
   -2.2292    0.9542    0.0000 C   0  0  0  0  0  0           0  0  0
   -2.9417   -0.2833    0.0000 C   0  0  0  0  0  0           0  0  0
   -2.9417    0.5417    0.0000 C   0  0  0  0  0  0           0  0  0
  2  1  1  0     0  0
  3  2  1  0     0  0
  4  1  1  0     0  0
  5  4  1  0     0  0
  6  3  1  0     0  0
  7  5  1  0     0  0
  8  3  2  0     0  0
  9  6  2  0     0  0
 10  1  1  0     0  0
 11 10  1  0     0  0
 12  8  1  0     0  0
 13  2  2  0     0  0
 14 12  1  0     0  0
 15  5  2  0     0  0
 16  4  1  0     0  0
 17 12  2  0     0  0
 18 14  2  0     0  0
 19 17  1  0     0  0
 20 18  1  0     0  0
 11 16  1  0     0  0
  7  6  1  0     0  0
 14  9  1  0     0  0
 20 19  2  0     0  0
M  END
>  <prID>
289

>  <IDDB>
85063

>  <pIC50_HIV_Integrase>
4.027758664

>  <Q>
1.930096834

>  <Activity_Integrase>
Inactive_Integrase

NA
NA
NA
NA
$$$$

  Accelrys05311914332D 1   1.00000     0.00000     0

 21 24  0     0  0            999 V2000
    0.4667    0.2958    0.0000 N   0  0  3  0  0  0           0  0  0
   -0.3417    0.1000    0.0000 C   0  0  0  0  0  0           0  0  0
    1.0750   -0.2750    0.0000 C   0  0  3  0  0  0           0  0  0
   -1.0000    0.6208    0.0000 C   0  0  0  0  0  0           0  0  0
    1.8000    0.1250    0.0000 S   0  0  0  0  0  0           0  0  0
    0.8167    1.0458    0.0000 C   0  0  3  0  0  0           0  0  0
   -0.3583    1.9667    0.0000 S   0  0  0  0  0  0           0  0  0
   -1.0000    1.4458    0.0000 C   0  0  0  0  0  0           0  0  0
   -0.5208   -0.7042    0.0000 O   0  0  0  0  0  0           0  0  0
    1.6458    0.9417    0.0000 C   0  0  0  0  0  0           0  0  0
    0.4500    1.7958    0.0000 C   0  0  0  0  0  0           0  0  0
    0.9750   -1.0917    0.0000 C   0  0  0  0  0  0           0  0  0
   -1.7167    0.2000    0.0000 C   0  0  0  0  0  0           0  0  0
   -1.7208    1.8583    0.0000 C   0  0  0  0  0  0           0  0  0
    0.2125   -1.4125    0.0000 C   0  0  0  0  0  0           0  0  0
    1.6292   -1.5875    0.0000 C   0  0  0  0  0  0           0  0  0
   -2.4292    0.6167    0.0000 C   0  0  0  0  0  0           0  0  0
   -2.4292    1.4417    0.0000 C   0  0  0  0  0  0           0  0  0
    1.5292   -2.4000    0.0000 C   0  0  0  0  0  0           0  0  0
    0.1083   -2.2292    0.0000 C   0  0  0  0  0  0           0  0  0
    0.7667   -2.7292    0.0000 C   0  0  0  0  0  0           0  0  0
  2  1  1  0     0  0
  3  1  1  0     0  0
  4  2  1  0     0  0
  5  3  1  0     0  0
  6  1  1  0     0  0
  7 11  1  0     0  0
  8  4  1  0     0  0
  9  2  2  0     0  0
 10  6  1  0     0  0
 11  6  1  0     0  0
 12  3  1  0     0  0
 13  4  2  0     0  0
 14  8  2  0     0  0
 15 12  2  0     0  0
 16 12  1  0     0  0
 17 13  1  0     0  0
 18 17  2  0     0  0
 19 16  2  0     0  0
 20 15  1  0     0  0
 21 19  1  0     0  0
 10  5  1  0     0  0
  8  7  1  0     0  0
 18 14  1  0     0  0
 21 20  2  0     0  0
M  END
>  <prID>
290

>  <IDDB>
85066

>  <pIC50_HIV_Integrase>
3.485503022

>  <Q>
1.885100562

>  <Activity_Integrase>
Inactive_Integrase

NA
NA
NA
NA
$$$$

  Accelrys05311914332D 1   1.00000     0.00000     0

 16 18  0     0  0            999 V2000
    0.7292   -0.5708    0.0000 N   0  0  3  0  0  0           0  0  0
   -0.0833   -0.7625    0.0000 C   0  0  0  0  0  0           0  0  0
    1.0792    0.1833    0.0000 C   0  0  0  0  0  0           0  0  0
    0.7125    0.9292    0.0000 C   0  0  0  0  0  0           0  0  0
   -0.7417   -0.2458    0.0000 C   0  0  0  0  0  0           0  0  0
   -0.0958    1.1042    0.0000 S   0  0  0  0  0  0           0  0  0
   -0.7417    0.5833    0.0000 C   0  0  0  0  0  0           0  0  0
    1.3375   -1.1375    0.0000 C   0  0  0  0  0  0           0  0  0
    1.9083    0.0833    0.0000 C   0  0  0  0  0  0           0  0  0
   -0.2583   -1.5667    0.0000 O   0  0  0  0  0  0           0  0  0
    2.0625   -0.7375    0.0000 C   0  0  0  0  0  0           0  0  0
    1.2917    1.5167    0.0000 O   0  0  0  0  0  0           0  0  0
   -1.4542   -0.6583    0.0000 C   0  0  0  0  0  0           0  0  0
   -1.4583    0.9917    0.0000 C   0  0  0  0  0  0           0  0  0
   -2.1667   -0.2500    0.0000 C   0  0  0  0  0  0           0  0  0
   -2.1667    0.5792    0.0000 C   0  0  0  0  0  0           0  0  0
  2  1  1  0     0  0
  3  1  1  0     0  0
  4  3  1  0     0  0
  5  2  1  0     0  0
  6  4  1  0     0  0
  7  5  1  0     0  0
  8  1  1  0     0  0
  9  3  2  0     0  0
 10  2  2  0     0  0
 11  8  2  0     0  0
 12  4  2  0     0  0
 13  5  2  0     0  0
 14  7  2  0     0  0
 15 13  1  0     0  0
 16 15  2  0     0  0
 11  9  1  0     0  0
  7  6  1  0     0  0
 16 14  1  0     0  0
M  END
>  <prID>
291

>  <IDDB>
85071

>  <pIC50_HIV_Integrase>
3.522878745

>  <Q>
2.032864397

>  <Activity_Integrase>
Inactive_Integrase

NA
NA
NA
NA
$$$$

  Accelrys05311914332D 1   1.00000     0.00000     0

 19 20  0     0  0            999 V2000
    4.1250   -3.4959    0.0000 C   0  0  0  0  0  0           0  0  0
    3.3125   -3.4959    0.0000 C   0  0  0  0  0  0           0  0  0
    2.9391   -2.7826    0.0000 C   0  0  2  0  0  0           0  0  0
    3.6500   -2.2125    0.0000 O   0  0  0  0  0  0           0  0  0
    4.4276   -2.7826    0.0000 C   0  0  1  0  0  0           0  0  0
    4.8458   -2.0625    0.0000 C   0  0  0  0  0  0           0  0  0
    5.6708   -2.0583    0.0000 O   0  0  0  0  0  0           0  0  0
    3.6583   -0.2167    0.0000 C   0  0  0  0  0  0           0  0  0
    3.6583   -1.0417    0.0000 C   0  0  0  0  0  0           0  0  0
    2.9463   -1.4500    0.0000 N   0  0  3  0  0  0           0  0  0
    2.2343   -1.0417    0.0000 C   0  0  0  0  0  0           0  0  0
    2.2343   -0.2167    0.0000 N   0  0  0  0  0  0           0  0  0
    2.9463    0.2000    0.0000 C   0  0  0  0  0  0           0  0  0
    2.9542    1.0250    0.0000 N   0  0  0  0  0  0           0  0  0
    1.5250   -1.4542    0.0000 O   0  0  0  0  0  0           0  0  0
    6.4958   -2.0583    0.0000 P   0  0  3  0  0  0           0  0  0
    7.3208   -2.0583    0.0000 O   0  0  0  0  0  0           0  0  0
    6.5000   -1.2333    0.0000 O   0  0  0  0  0  0           0  0  0
    6.5000   -2.8833    0.0000 O   0  0  0  0  0  0           0  0  0
  5  1  1  0     0  0
  1  2  1  0     0  0
  5  6  1  1     0  0
  8 13  1  0     0  0
  9 10  1  0     0  0
 10 11  1  0     0  0
 11 12  1  0     0  0
 12 13  2  0     0  0
 13 14  1  0     0  0
  6  7  1  0     0  0
 11 15  2  0     0  0
  3 10  1  1     0  0
  8  9  2  0     0  0
  7 16  1  0     0  0
  2  3  1  0     0  0
 16 17  1  0     0  0
  3  4  1  0     0  0
 16 18  2  0     0  0
  4  5  1  0     0  0
 16 19  1  0     0  0
M  END
>  <prID>
292

>  <IDDB>
85075

>  <pIC50_HIV_Integrase>
4.346787486

>  <Q>
-5.962924781

>  <Activity_Integrase>
Inactive_Integrase

NA
NA
NA
NA
$$$$

  Accelrys05311914342D 1   1.00000     0.00000     0

 31 32  0     0  0            999 V2000
    0.2375    1.1042    0.0000 C   0  0  1  0  0  0           0  0  0
    0.2250    0.2917    0.0000 C   0  0  0  0  0  0           0  0  0
   -0.4833   -0.1208    0.0000 C   0  0  0  0  0  0           0  0  0
   -1.2042    0.2917    0.0000 C   0  0  0  0  0  0           0  0  0
    0.9583    1.5167    0.0000 C   0  0  1  0  0  0           0  0  0
   -0.4833    1.5208    0.0000 C   0  0  0  0  0  0           0  0  0
    1.6750   -1.4000    0.0000 C   0  0  0  0  0  0           0  0  0
   -1.2042    1.1042    0.0000 C   0  0  1  0  0  0           0  0  0
    0.9542   -0.1208    0.0000 C   0  0  2  0  0  0           0  0  0
    1.6750   -2.2167    0.0000 C   0  0  0  0  0  0           0  0  0
    0.9375   -0.9833    0.0000 O   0  0  0  0  0  0           0  0  0
    0.9542    2.3417    0.0000 C   0  0  0  0  0  0           0  0  0
    0.9542   -2.6250    0.0000 C   0  0  0  0  0  0           0  0  0
   -1.9292    1.5167    0.0000 C   0  0  0  0  0  0           0  0  0
    1.6667    1.1167    0.0000 C   0  0  0  0  0  0           0  0  0
    1.6750    0.2833    0.0000 C   0  0  0  0  0  0           0  0  0
   -1.9292   -0.1208    0.0000 O   0  0  0  0  0  0           0  0  0
    2.4000   -0.9875    0.0000 O   0  0  0  0  0  0           0  0  0
    0.2250    2.7500    0.0000 O   0  0  0  0  0  0           0  0  0
   -2.6625    1.1167    0.0000 C   0  0  0  0  0  0           0  0  0
   -1.9417    2.3417    0.0000 C   0  0  0  0  0  0           0  0  0
   -1.1250    2.5625    0.0000 O   0  0  0  0  0  0           0  0  0
    0.2208    1.9333    0.0000 C   0  0  0  0  0  0           0  0  0
    1.6750    2.7583    0.0000 O   0  0  0  0  0  0           0  0  0
    0.2208   -2.2167    0.0000 C   0  0  3  0  0  0           0  0  0
    2.3875   -2.6292    0.0000 C   0  0  0  0  0  0           0  0  0
   -0.4958   -2.6250    0.0000 C   0  0  0  0  0  0           0  0  0
    0.2208   -1.4000    0.0000 C   0  0  0  0  0  0           0  0  0
   -1.9458   -2.6167    0.0000 C   0  0  0  0  0  0           0  0  0
   -1.2292   -2.2167    0.0000 C   0  0  0  0  0  0           0  0  0
   -2.6792   -2.2083    0.0000 C   0  0  0  0  0  0           0  0  0
  2  1  1  0     0  0
  3  2  2  0     0  0
  4  8  1  0     0  0
  5  1  1  0     0  0
  6  1  1  0     0  0
  7 11  1  0     0  0
  8  6  1  0     0  0
  9  2  1  0     0  0
 10  7  1  0     0  0
  9 11  1  1     0  0
  5 12  1  1     0  0
 13 10  2  0     0  0
  8 14  1  6     0  0
 15  5  1  0     0  0
 16 15  1  0     0  0
 17  4  2  0     0  0
 18  7  2  0     0  0
 19 12  2  0     0  0
 20 14  2  0     0  0
 21 14  1  0     0  0
 22 21  2  0     0  0
  1 23  1  1     0  0
 24 12  1  0     0  0
 25 13  1  0     0  0
 26 10  1  0     0  0
 27 25  1  0     0  0
 28 25  1  0     0  0
 29 30  1  0     0  0
 30 27  1  0     0  0
 31 29  1  0     0  0
  4  3  1  0     0  0
 16  9  1  0     0  0
M  END
>  <prID>
293

>  <IDDB>
85412

>  <pIC50_HIV_Integrase>
5

>  <Q>
-3.420591814

>  <Activity_Integrase>
Inactive_Integrase

NA
NA
NA
NA
$$$$

  Accelrys05311914342D 1   1.00000     0.00000     0

 29 31  0     0  0            999 V2000
    0.2167    1.0500    0.0000 C   0  0  0  0  0  0           0  0  0
    0.9667    0.7208    0.0000 C   0  0  0  0  0  0           0  0  0
   -0.4833    0.6417    0.0000 C   0  0  0  0  0  0           0  0  0
    0.3042    1.8625    0.0000 C   0  0  0  0  0  0           0  0  0
    1.5083    1.3250    0.0000 N   0  0  3  0  0  0           0  0  0
   -0.5000   -0.4792    0.0000 C   0  0  1  0  0  0           0  0  0
    1.1000    2.0292    0.0000 C   0  0  1  0  0  0           0  0  0
   -1.2000   -0.8917    0.0000 C   0  0  1  0  0  0           0  0  0
   -1.2000   -1.7125    0.0000 C   0  0  2  0  0  0           0  0  0
   -0.5000   -2.1083    0.0000 C   0  0  0  0  0  0           0  0  0
    0.2000   -1.7125    0.0000 C   0  0  0  0  0  0           0  0  0
    0.2000   -0.8917    0.0000 C   0  0  1  0  0  0           0  0  0
    1.3708    0.1250    0.0000 O   0  0  0  0  0  0           0  0  0
   -1.9042   -0.4875    0.0000 C   0  0  0  0  0  0           0  0  0
   -0.2625    2.4417    0.0000 O   0  0  0  0  0  0           0  0  0
   -1.9000   -2.1167    0.0000 C   0  0  0  0  0  0           0  0  0
   -1.1875    1.0542    0.0000 O   0  0  0  0  0  0           0  0  0
    1.0417   -0.6667    0.0000 C   0  0  0  0  0  0           0  0  0
    1.7458   -1.1833    0.0000 C   0  0  0  0  0  0           0  0  0
    2.3000    1.1208    0.0000 C   0  0  0  0  0  0           0  0  0
    1.5167    2.7417    0.0000 C   0  0  0  0  0  0           0  0  0
   -2.6042   -0.9000    0.0000 C   0  0  0  0  0  0           0  0  0
    0.2083   -0.0792    0.0000 C   0  0  0  0  0  0           0  0  0
   -2.6000   -1.7125    0.0000 C   0  0  1  0  0  0           0  0  0
    2.3250    2.7417    0.0000 O   0  0  0  0  0  0           0  0  0
    2.5750   -0.7542    0.0000 C   0  0  0  0  0  0           0  0  0
   -3.3000   -2.1167    0.0000 C   0  0  0  0  0  0           0  0  0
   -1.1958   -0.0792    0.0000 H   0  0  0  0  0  0           0  0  0
   -1.1875   -2.5167    0.0000 H   0  0  0  0  0  0           0  0  0
  2  1  1  0     0  0
  3  1  2  0     0  0
  4  1  1  0     0  0
  5  2  1  0     0  0
  6  3  1  0     0  0
  7  4  1  0     0  0
  8  6  1  0     0  0
  9  8  1  0     0  0
 10 11  2  0     0  0
 11 12  1  0     0  0
 12  6  1  0     0  0
 13  2  2  0     0  0
 14  8  1  0     0  0
 15  4  2  0     0  0
 16  9  1  0     0  0
 17  3  1  0     0  0
 12 18  1  6     0  0
 19 18  2  0     0  0
 20  5  1  0     0  0
  7 21  1  6     0  0
 22 14  1  0     0  0
  6 23  1  1     0  0
 24 22  1  0     0  0
 25 21  1  0     0  0
 26 19  1  0     0  0
 24 27  1  6     0  0
  8 28  1  6     0  0
  9 29  1  1     0  0
  5  7  1  0     0  0
 10  9  1  0     0  0
 24 16  1  0     0  0
M  END
>  <prID>
294

>  <IDDB>
85413

>  <pIC50_HIV_Integrase>
5.07215365525

>  <Q>
-3.275548061

>  <Activity_Integrase>
Inactive_Integrase

NA
NA
NA
NA
$$$$

  Accelrys05311914342D 1   1.00000     0.00000     0

 31 33  0     0  0            999 V2000
    0.0208    1.3042    0.0000 C   0  0  0  0  0  0           0  0  0
    0.8167    1.1208    0.0000 C   0  0  0  0  0  0           0  0  0
   -0.6792    0.3542    0.0000 C   0  0  0  0  0  0           0  0  0
   -0.0542    2.1167    0.0000 C   0  0  0  0  0  0           0  0  0
   -0.7208   -0.4667    0.0000 C   0  0  2  0  0  0           0  0  0
    1.2333    1.8208    0.0000 N   0  0  3  0  0  0           0  0  0
    0.7000    2.4375    0.0000 C   0  0  2  0  0  0           0  0  0
   -1.3833   -0.8667    0.0000 C   0  0  2  0  0  0           0  0  0
    0.0250   -0.9292    0.0000 C   0  0  2  0  0  0           0  0  0
    0.0292   -1.6792    0.0000 C   0  0  0  0  0  0           0  0  0
   -1.3792   -1.6833    0.0000 C   0  0  3  0  0  0           0  0  0
   -0.6750   -2.0917    0.0000 C   0  0  0  0  0  0           0  0  0
    1.0625    0.3500    0.0000 O   0  0  0  0  0  0           0  0  0
   -2.0833   -0.4583    0.0000 C   0  0  0  0  0  0           0  0  0
   -0.7708    2.5083    0.0000 O   0  0  0  0  0  0           0  0  0
    0.7750   -0.6000    0.0000 C   0  0  0  0  0  0           0  0  0
   -2.0833   -2.0917    0.0000 C   0  0  0  0  0  0           0  0  0
   -1.5250    0.9542    0.0000 O   0  0  0  0  0  0           0  0  0
    1.4333   -1.0875    0.0000 C   0  0  0  0  0  0           0  0  0
    2.1792   -0.7583    0.0000 C   0  0  0  0  0  0           0  0  0
    2.8417   -1.2417    0.0000 C   0  0  0  0  0  0           0  0  0
    2.0042    2.0750    0.0000 C   0  0  0  0  0  0           0  0  0
    0.0292    0.0208    0.0000 C   0  0  0  0  0  0           0  0  0
    1.0625    3.1708    0.0000 C   0  0  0  0  0  0           0  0  0
   -2.7958   -0.8667    0.0000 C   0  0  0  0  0  0           0  0  0
   -2.7958   -1.6833    0.0000 C   0  0  2  0  0  0           0  0  0
    0.7375   -2.0917    0.0000 C   0  0  0  0  0  0           0  0  0
    1.8417    3.4208    0.0000 O   0  0  0  0  0  0           0  0  0
    3.5917   -0.9125    0.0000 C   0  0  0  0  0  0           0  0  0
   -3.5042   -2.0917    0.0000 C   0  0  0  0  0  0           0  0  0
   -1.4000   -0.3417    0.0000 H   0  0  0  0  0  0           0  0  0
  2  1  1  0     0  0
  3  1  2  0     0  0
  4  1  1  0     0  0
  5  3  1  0     0  0
  6  2  1  0     0  0
  7  4  1  0     0  0
  8  5  1  0     0  0
  9  5  1  0     0  0
 10  9  1  0     0  0
 11  8  1  0     0  0
 12 10  2  0     0  0
 13  2  2  0     0  0
 14  8  1  0     0  0
 15  4  2  0     0  0
  9 16  1  1     0  0
 17 11  1  0     0  0
 18  3  1  0     0  0
 19 16  2  0     0  0
 20 19  1  0     0  0
 21 20  2  0     0  0
 22  6  1  0     0  0
  5 23  1  6     0  0
  7 24  1  1     0  0
 25 14  1  0     0  0
 26 25  1  0     0  0
 27 10  1  0     0  0
 28 24  1  0     0  0
 29 21  1  0     0  0
 26 30  1  1     0  0
  8 31  1  1     0  0
  6  7  1  0     0  0
 12 11  1  0     0  0
 26 17  1  0     0  0
M  END
>  <prID>
295

>  <IDDB>
85414

>  <pIC50_HIV_Integrase>
4.9894053505

>  <Q>
-3.227958914

>  <Activity_Integrase>
Inactive_Integrase

NA
NA
NA
NA
$$$$

  Accelrys05311914342D 1   1.00000     0.00000     0

 32 34  0     0  0            999 V2000
    0.0458    1.0208    0.0000 C   0  0  0  0  0  0           0  0  0
    0.8333    0.7667    0.0000 C   0  0  0  0  0  0           0  0  0
   -0.6583    0.6208    0.0000 C   0  0  0  0  0  0           0  0  0
    0.0500    1.8208    0.0000 C   0  0  0  0  0  0           0  0  0
   -0.6583   -0.1875    0.0000 C   0  0  2  0  0  0           0  0  0
    1.3125    1.4208    0.0000 N   0  0  3  0  0  0           0  0  0
    0.8375    2.0708    0.0000 C   0  0  2  0  0  0           0  0  0
   -1.3625   -0.5958    0.0000 C   0  0  2  0  0  0           0  0  0
    0.0625   -1.3958    0.0000 C   0  0  0  0  0  0           0  0  0
   -1.3583   -1.4000    0.0000 C   0  0  1  0  0  0           0  0  0
   -0.6583   -1.8000    0.0000 C   0  0  0  0  0  0           0  0  0
    0.0583   -0.5875    0.0000 C   0  0  2  0  0  0           0  0  0
    1.0375   -0.0042    0.0000 O   0  0  0  0  0  0           0  0  0
   -2.0833   -0.1833    0.0000 C   0  0  0  0  0  0           0  0  0
   -0.6667    2.2208    0.0000 O   0  0  0  0  0  0           0  0  0
   -2.0833   -1.8000    0.0000 C   0  0  0  0  0  0           0  0  0
   -1.2792    1.1875    0.0000 O   0  0  0  0  0  0           0  0  0
    2.1042    1.6250    0.0000 C   0  0  0  0  0  0           0  0  0
   -1.1917    0.3875    0.0000 C   0  0  0  0  0  0           0  0  0
    1.0500    2.8750    0.0000 C   0  0  0  0  0  0           0  0  0
   -2.7833   -0.5958    0.0000 C   0  0  0  0  0  0           0  0  0
   -2.7833   -1.3958    0.0000 C   0  0  2  0  0  0           0  0  0
    0.7750   -1.8042    0.0000 C   0  0  0  0  0  0           0  0  0
    0.8792   -0.5833    0.0000 C   0  0  0  0  0  0           0  0  0
    1.8458    3.0875    0.0000 O   0  0  0  0  0  0           0  0  0
   -3.4917   -1.8000    0.0000 C   0  0  0  0  0  0           0  0  0
    1.4625   -1.1583    0.0000 C   0  0  0  0  0  0           0  0  0
    2.8250   -1.5250    0.0000 C   0  0  0  0  0  0           0  0  0
    2.2500   -0.9542    0.0000 C   0  0  0  0  0  0           0  0  0
    3.6083   -1.3167    0.0000 C   0  0  0  0  0  0           0  0  0
   -2.2208    0.5125    0.0000 H   0  0  0  0  0  0           0  0  0
   -1.3667   -2.2000    0.0000 H   0  0  0  0  0  0           0  0  0
  2  1  1  0     0  0
  3  1  2  0     0  0
  4  1  1  0     0  0
  5  3  1  0     0  0
  6  2  1  0     0  0
  7  4  1  0     0  0
  8  5  1  0     0  0
  9 12  1  0     0  0
 10  8  1  0     0  0
 11  9  2  0     0  0
 12  5  1  0     0  0
 13  2  2  0     0  0
 14  8  1  0     0  0
 15  4  2  0     0  0
 16 10  1  0     0  0
 17  3  1  0     0  0
 18  6  1  0     0  0
  5 19  1  6     0  0
  7 20  1  1     0  0
 21 14  1  0     0  0
 22 21  1  0     0  0
 23  9  1  0     0  0
 12 24  1  1     0  0
 25 20  1  0     0  0
 22 26  1  1     0  0
 27 24  1  0     0  0
 28 29  1  0     0  0
 29 27  1  0     0  0
 30 28  1  0     0  0
  8 31  1  1     0  0
 10 32  1  6     0  0
  6  7  1  0     0  0
 11 10  1  0     0  0
 22 16  1  0     0  0
M  END
>  <prID>
296

>  <IDDB>
85924

>  <pIC50_HIV_Integrase>
4.9894053505

>  <Q>
-4.811830354

>  <Activity_Integrase>
Inactive_Integrase

NA
NA
NA
NA
$$$$

  Accelrys05311914342D 1   1.00000     0.00000     0

 21 22  0     0  0            999 V2000
    2.4194   -3.6208    0.0000 C   0  0  0  0  0  0           0  0  0
    2.4182   -4.4482    0.0000 C   0  0  0  0  0  0           0  0  0
    3.1331   -4.8610    0.0000 C   0  0  0  0  0  0           0  0  0
    3.8495   -4.4477    0.0000 C   0  0  0  0  0  0           0  0  0
    3.8466   -3.6172    0.0000 C   0  0  0  0  0  0           0  0  0
    3.1313   -3.2080    0.0000 C   0  0  0  0  0  0           0  0  0
    4.5583   -3.2000    0.0000 C   0  0  0  0  0  0           0  0  0
    1.7000   -4.8542    0.0000 F   0  0  0  0  0  0           0  0  0
    4.5640   -2.3783    0.0000 N   0  0  3  0  0  0           0  0  0
    5.2333   -1.8958    0.0000 C   0  0  0  0  0  0           0  0  0
    4.9765   -1.1075    0.0000 C   0  0  0  0  0  0           0  0  0
    4.1515   -1.1075    0.0000 C   0  0  0  0  0  0           0  0  0
    3.8947   -1.8958    0.0000 C   0  0  0  0  0  0           0  0  0
    5.9458   -2.3042    0.0000 C   0  0  0  0  0  0           0  0  0
    6.6583   -1.8917    0.0000 C   0  0  0  0  0  0           0  0  0
    7.3708   -2.3000    0.0000 C   0  0  0  0  0  0           0  0  0
    8.0833   -1.8875    0.0000 C   0  0  0  0  0  0           0  0  0
    8.7958   -2.2958    0.0000 O   0  0  0  0  0  0           0  0  0
    5.9417   -3.1292    0.0000 O   0  0  0  0  0  0           0  0  0
    7.3667   -3.1250    0.0000 O   0  0  0  0  0  0           0  0  0
    8.0792   -1.0625    0.0000 O   0  0  0  0  0  0           0  0  0
  2  3  1  0     0  0
  5  6  2  0     0  0
  6  1  1  0     0  0
  9 10  1  0     0  0
 11 12  1  0     0  0
 13  9  1  0     0  0
  1  2  2  0     0  0
 10 14  1  0     0  0
  5  7  1  0     0  0
 14 15  1  0     0  0
  3  4  2  0     0  0
 15 16  2  0     0  0
  2  8  1  0     0  0
 16 17  1  0     0  0
 12 13  2  0     0  0
 17 18  1  0     0  0
  9  7  1  0     0  0
 14 19  2  0     0  0
  4  5  1  0     0  0
 16 20  1  0     0  0
 10 11  2  0     0  0
 17 21  2  0     0  0
M  END
>  <prID>
297

>  <IDDB>
86031

>  <pIC50_HIV_Integrase>
6.698970004

>  <Q>
-2.665217901

>  <Activity_Integrase>
Active_Integrase

NA
NA
NA
NA
$$$$

  Accelrys05311914342D 1   1.00000     0.00000     0

 30 32  0     0  0            999 V2000
    1.3194   -2.6291    0.0000 C   0  0  0  0  0  0           0  0  0
    1.3182   -3.4565    0.0000 C   0  0  0  0  0  0           0  0  0
    2.0331   -3.8694    0.0000 C   0  0  0  0  0  0           0  0  0
    2.7495   -3.4560    0.0000 C   0  0  0  0  0  0           0  0  0
    2.7466   -2.6255    0.0000 C   0  0  0  0  0  0           0  0  0
    2.0313   -2.2164    0.0000 C   0  0  0  0  0  0           0  0  0
    3.4583   -3.8667    0.0000 C   0  0  0  0  0  0           0  0  0
    4.1750   -3.4583    0.0000 O   0  0  0  0  0  0           0  0  0
    2.7444   -5.1083    0.0000 C   0  0  0  0  0  0           0  0  0
    2.7432   -5.9357    0.0000 C   0  0  0  0  0  0           0  0  0
    3.4581   -6.3485    0.0000 C   0  0  0  0  0  0           0  0  0
    4.1745   -5.9352    0.0000 C   0  0  0  0  0  0           0  0  0
    4.1716   -5.1047    0.0000 C   0  0  0  0  0  0           0  0  0
    3.4563   -4.6955    0.0000 C   0  0  0  0  0  0           0  0  0
    4.8833   -6.3458    0.0000 C   0  0  0  0  0  0           0  0  0
    6.3216   -3.8713    0.0000 C   0  0  0  0  0  0           0  0  0
    7.0341   -3.4588    0.0000 C   0  0  0  0  0  0           0  0  0
    7.7466   -3.8672    0.0000 C   0  0  0  0  0  0           0  0  0
    8.4591   -3.4547    0.0000 C   0  0  0  0  0  0           0  0  0
    9.1716   -3.8630    0.0000 C   0  0  0  0  0  0           0  0  0
    9.8841   -3.4505    0.0000 O   0  0  0  0  0  0           0  0  0
    4.8944   -3.8750    0.0000 C   0  0  0  0  0  0           0  0  0
    4.8932   -4.7023    0.0000 C   0  0  0  0  0  0           0  0  0
    5.6081   -5.1152    0.0000 C   0  0  0  0  0  0           0  0  0
    6.3245   -4.7019    0.0000 C   0  0  0  0  0  0           0  0  0
    5.6063   -3.4622    0.0000 C   0  0  0  0  0  0           0  0  0
    7.0292   -2.6333    0.0000 O   0  0  0  0  0  0           0  0  0
    8.4542   -2.6292    0.0000 O   0  0  0  0  0  0           0  0  0
    9.1667   -4.6875    0.0000 O   0  0  0  0  0  0           0  0  0
    5.6000   -5.9375    0.0000 O   0  0  0  0  0  0           0  0  0
 12 15  1  0     0  0
  3  4  2  0     0  0
  8  7  1  0     0  0
 16 17  1  0     0  0
 17 18  1  0     0  0
  4  5  1  0     0  0
 18 19  1  0     0  0
  9 10  2  0     0  0
 19 20  1  0     0  0
  2  3  1  0     0  0
 20 21  1  0     0  0
 10 11  1  0     0  0
  5  6  2  0     0  0
 22 23  2  0     0  0
 11 12  2  0     0  0
 23 24  1  0     0  0
  6  1  1  0     0  0
 24 25  2  0     0  0
 25 16  1  0     0  0
 12 13  1  0     0  0
 16 26  2  0     0  0
 26 22  1  0     0  0
  1  2  2  0     0  0
 17 27  2  0     0  0
 13 14  2  0     0  0
 19 28  2  0     0  0
 14  9  1  0     0  0
 20 29  2  0     0  0
 22  8  1  0     0  0
  4  7  1  0     0  0
 24 30  1  0     0  0
 30 15  1  0     0  0
M  END
>  <prID>
298

>  <IDDB>
86032

>  <pIC50_HIV_Integrase>
6.853871964

>  <Q>
-0.169937608

>  <Activity_Integrase>
Active_Integrase

NA
NA
NA
NA
$$$$

  Accelrys05311914342D 1   1.00000     0.00000     0

 22 23  0     0  0            999 V2000
    1.6833    0.3208    0.0000 C   0  0  0  0  0  0           0  0  0
    1.7083   -0.5000    0.0000 C   0  0  0  0  0  0           0  0  0
    1.0042    0.7875    0.0000 N   0  0  3  0  0  0           0  0  0
    1.0083   -0.9333    0.0000 C   0  0  0  0  0  0           0  0  0
    1.0333   -1.7583    0.0000 C   0  0  0  0  0  0           0  0  0
    0.3375   -2.1875    0.0000 C   0  0  0  0  0  0           0  0  0
    2.3375    0.8292    0.0000 C   0  0  0  0  0  0           0  0  0
    1.2375    1.5833    0.0000 C   0  0  0  0  0  0           0  0  0
    2.0583    1.6042    0.0000 C   0  0  0  0  0  0           0  0  0
    2.4333   -0.8875    0.0000 O   0  0  0  0  0  0           0  0  0
   -0.3875   -1.8000    0.0000 O   0  0  0  0  0  0           0  0  0
    1.7583   -2.1417    0.0000 O   0  0  0  0  0  0           0  0  0
    0.3583   -3.0125    0.0000 O   0  0  0  0  0  0           0  0  0
    0.3042    0.3625    0.0000 C   0  0  0  0  0  0           0  0  0
   -1.8417    0.7208    0.0000 C   0  0  0  0  0  0           0  0  0
   -0.4167    0.7583    0.0000 C   0  0  0  0  0  0           0  0  0
   -1.1167    0.3292    0.0000 C   0  0  0  0  0  0           0  0  0
   -1.8625    1.5458    0.0000 C   0  0  0  0  0  0           0  0  0
   -2.5417    0.2875    0.0000 C   0  0  0  0  0  0           0  0  0
   -2.5833    1.9417    0.0000 C   0  0  0  0  0  0           0  0  0
   -3.2667    0.6833    0.0000 C   0  0  0  0  0  0           0  0  0
   -3.2875    1.5083    0.0000 C   0  0  0  0  0  0           0  0  0
  2  1  1  0     0  0
  3  1  1  0     0  0
  4  2  1  0     0  0
  5  4  1  0     0  0
  6  5  1  0     0  0
  7  1  2  0     0  0
  8  3  1  0     0  0
  9  7  1  0     0  0
 10  2  2  0     0  0
 11  6  2  0     0  0
 12  5  2  0     0  0
 13  6  1  0     0  0
 14  3  1  0     0  0
 15 17  1  0     0  0
 16 14  1  0     0  0
 17 16  1  0     0  0
 18 15  2  0     0  0
 19 15  1  0     0  0
 20 18  1  0     0  0
 21 19  2  0     0  0
 22 21  1  0     0  0
  9  8  2  0     0  0
 22 20  2  0     0  0
M  END
>  <prID>
299

>  <IDDB>
86033

>  <pIC50_HIV_Integrase>
6.301029996

>  <Q>
-0.585070531

>  <Activity_Integrase>
Active_Integrase

NA
NA
NA
NA
$$$$

  Accelrys05311914342D 1   1.00000     0.00000     0

 26 28  0     0  0            999 V2000
    0.9167    0.9792    0.0000 N   0  0  3  0  0  0           0  0  0
    1.7417    1.0750    0.0000 C   0  0  0  0  0  0           0  0  0
    2.3083    0.4625    0.0000 C   0  0  0  0  0  0           0  0  0
    2.0625   -0.3250    0.0000 C   0  0  0  0  0  0           0  0  0
    2.6250   -0.9333    0.0000 C   0  0  0  0  0  0           0  0  0
    2.3792   -1.7250    0.0000 C   0  0  0  0  0  0           0  0  0
    0.5792    1.7292    0.0000 C   0  0  0  0  0  0           0  0  0
    0.5917    0.2250    0.0000 C   0  0  0  0  0  0           0  0  0
    1.9042    1.8833    0.0000 C   0  0  0  0  0  0           0  0  0
    1.1875    2.2833    0.0000 C   0  0  0  0  0  0           0  0  0
   -1.8708   -0.0583    0.0000 C   0  0  0  0  0  0           0  0  0
    3.1167    0.6500    0.0000 O   0  0  0  0  0  0           0  0  0
    1.5750   -1.9083    0.0000 O   0  0  0  0  0  0           0  0  0
    3.4292   -0.7500    0.0000 O   0  0  0  0  0  0           0  0  0
   -2.6958   -0.1542    0.0000 C   0  0  0  0  0  0           0  0  0
   -1.3833   -0.7208    0.0000 C   0  0  0  0  0  0           0  0  0
   -1.5458    0.7000    0.0000 C   0  0  0  0  0  0           0  0  0
   -0.2250    0.1333    0.0000 C   0  0  0  0  0  0           0  0  0
    2.9375   -2.3250    0.0000 O   0  0  0  0  0  0           0  0  0
   -0.5583   -0.6250    0.0000 C   0  0  0  0  0  0           0  0  0
   -0.7208    0.7958    0.0000 C   0  0  0  0  0  0           0  0  0
   -3.1875    0.5125    0.0000 C   0  0  0  0  0  0           0  0  0
   -3.0208   -0.9125    0.0000 C   0  0  0  0  0  0           0  0  0
   -4.0125    0.4167    0.0000 C   0  0  0  0  0  0           0  0  0
   -3.8500   -1.0042    0.0000 C   0  0  0  0  0  0           0  0  0
   -4.3417   -0.3417    0.0000 C   0  0  0  0  0  0           0  0  0
  2  1  1  0     0  0
  3  2  1  0     0  0
  4  3  1  0     0  0
  5  4  1  0     0  0
  6  5  1  0     0  0
  7  1  1  0     0  0
  8  1  1  0     0  0
  9  2  2  0     0  0
 10  7  2  0     0  0
 11 16  1  0     0  0
 12  3  2  0     0  0
 13  6  2  0     0  0
 14  5  2  0     0  0
 15 11  1  0     0  0
 16 20  2  0     0  0
 17 21  1  0     0  0
 18  8  1  0     0  0
 19  6  1  0     0  0
 20 18  1  0     0  0
 21 18  2  0     0  0
 22 15  2  0     0  0
 23 15  1  0     0  0
 24 22  1  0     0  0
 25 23  2  0     0  0
 26 25  1  0     0  0
 10  9  1  0     0  0
 11 17  2  0     0  0
 26 24  2  0     0  0
M  END
>  <prID>
300

>  <IDDB>
86034

>  <pIC50_HIV_Integrase>
5.124938737

>  <Q>
0.645606373

>  <Activity_Integrase>
Inactive_Integrase

NA
NA
NA
NA
$$$$

  Accelrys05311914342D 1   1.00000     0.00000     0

 28 31  0     0  0            999 V2000
   -0.9042   -0.2125    0.0000 C   0  0  0  0  0  0           0  0  0
   -0.1833    1.0083    0.0000 C   0  0  2  0  0  0           0  0  0
   -0.1917    0.1917    0.0000 C   0  0  1  0  0  0           0  0  0
   -1.6167    0.2042    0.0000 C   0  0  0  0  0  0           0  0  0
   -0.8917    1.4333    0.0000 C   0  0  1  0  0  0           0  0  0
    0.5167   -0.2208    0.0000 C   0  0  0  0  0  0           0  0  0
   -0.7042    2.2417    0.0000 C   0  0  0  0  0  0           0  0  0
   -1.6125    1.0292    0.0000 C   0  0  0  0  0  0           0  0  0
   -0.9042   -1.0375    0.0000 C   0  0  0  0  0  0           0  0  0
    0.1167    2.3167    0.0000 O   0  0  0  0  0  0           0  0  0
    0.4417    1.5542    0.0000 C   0  0  0  0  0  0           0  0  0
   -2.3292   -0.2083    0.0000 C   0  0  0  0  0  0           0  0  0
   -1.6167   -1.4417    0.0000 C   0  0  0  0  0  0           0  0  0
    1.2250    0.1875    0.0000 C   0  0  0  0  0  0           0  0  0
   -2.3292   -1.0375    0.0000 C   0  0  0  0  0  0           0  0  0
    1.9375   -0.2292    0.0000 C   0  0  0  0  0  0           0  0  0
    0.5125   -1.0417    0.0000 C   0  0  0  0  0  0           0  0  0
    1.9333   -1.0500    0.0000 C   0  0  0  0  0  0           0  0  0
   -1.2958    2.8333    0.0000 O   0  0  0  0  0  0           0  0  0
    1.2167   -1.4583    0.0000 C   0  0  0  0  0  0           0  0  0
   -1.6208   -2.2667    0.0000 O   0  0  0  0  0  0           0  0  0
   -3.0417   -1.4417    0.0000 O   0  0  0  0  0  0           0  0  0
    2.6458    0.1917    0.0000 O   0  0  0  0  0  0           0  0  0
    2.6417   -1.4625    0.0000 O   0  0  0  0  0  0           0  0  0
    2.6417    1.0167    0.0000 C   0  0  0  0  0  0           0  0  0
    3.3583   -1.0458    0.0000 C   0  0  0  0  0  0           0  0  0
    0.5292    0.6000    0.0000 H   0  0  0  0  0  0           0  0  0
   -1.6125    1.8500    0.0000 H   0  0  0  0  0  0           0  0  0
  2  3  1  0     0  0
  3  1  1  0     0  0
  4  1  2  0     0  0
  5  8  1  0     0  0
  3  6  1  1     0  0
  7  5  1  0     0  0
  8  4  1  0     0  0
  9  1  1  0     0  0
 10 11  1  0     0  0
 11  2  1  0     0  0
 12  4  1  0     0  0
 13  9  2  0     0  0
 14  6  2  0     0  0
 15 13  1  0     0  0
 16 14  1  0     0  0
 17  6  1  0     0  0
 18 20  1  0     0  0
 19  7  2  0     0  0
 20 17  2  0     0  0
 21 13  1  0     0  0
 22 15  1  0     0  0
 23 16  1  0     0  0
 24 18  1  0     0  0
 25 23  1  0     0  0
 26 24  1  0     0  0
  2 27  1  1     0  0
  5 28  1  1     0  0
 15 12  2  0     0  0
  5  2  1  0     0  0
 10  7  1  0     0  0
 18 16  2  0     0  0
M  END
>  <prID>
301

>  <IDDB>
86543

>  <pIC50_HIV_Integrase>
5.15490196

>  <Q>
-2.406060965

>  <Activity_Integrase>
Inactive_Integrase

NA
NA
NA
NA
$$$$

  Accelrys05311914342D 1   1.00000     0.00000     0

 22 24  0     0  0            999 V2000
   -2.3759   -1.3433    0.0000 C   0  0  0  0  0  0           0  0  0
   -1.7940   -0.7557    0.0000 C   0  0  0  0  0  0           0  0  0
   -0.9657   -0.8421    0.0000 N   0  0  3  0  0  0           0  0  0
   -0.5160   -1.5391    0.0000 C   0  0  0  0  0  0           0  0  0
   -0.7863   -2.3235    0.0000 C   0  0  3  0  0  0           0  0  0
   -1.5683   -2.6069    0.0000 C   0  0  0  0  0  0           0  0  0
   -2.2752   -2.1698    0.0000 C   0  0  0  0  0  0           0  0  0
   -3.0050   -2.5634    0.0000 C   0  0  0  0  0  0           0  0  0
   -3.0292   -3.3940    0.0000 C   0  0  0  0  0  0           0  0  0
   -2.3175   -3.8293    0.0000 C   0  0  0  0  0  0           0  0  0
   -1.5905   -3.4332    0.0000 C   0  0  0  0  0  0           0  0  0
   -0.0750   -2.7333    0.0000 C   0  0  0  0  0  0           0  0  0
   -0.0771   -3.5553    0.0000 C   0  0  0  0  0  0           0  0  0
    0.6334   -3.9650    0.0000 C   0  0  0  0  0  0           0  0  0
    1.3449   -3.5539    0.0000 C   0  0  0  0  0  0           0  0  0
    1.3415   -2.7288    0.0000 C   0  0  0  0  0  0           0  0  0
    0.6305   -2.3228    0.0000 C   0  0  0  0  0  0           0  0  0
   -0.5583   -0.1250    0.0000 C   0  0  0  0  0  0           0  0  0
   -3.7546   -3.7869    0.0000 O   0  0  0  0  0  0           0  0  0
   -2.3381   -4.6541    0.0000 O   0  0  0  0  0  0           0  0  0
    2.0542   -2.3132    0.0000 O   0  0  0  0  0  0           0  0  0
    2.0603   -3.9648    0.0000 O   0  0  0  0  0  0           0  0  0
 10 11  2  0     0  0
 11  6  1  0     0  0
  6  5  1  0     0  0
  5 12  1  0     0  0
  2  3  1  0     0  0
 12 13  2  0     0  0
  1  7  1  0     0  0
 13 14  1  0     0  0
  6  7  2  0     0  0
 14 15  2  0     0  0
  1  2  1  0     0  0
 15 16  1  0     0  0
  7  8  1  0     0  0
 16 17  2  0     0  0
 17 12  1  0     0  0
  3  4  1  0     0  0
  3 18  1  0     0  0
  8  9  2  0     0  0
  9 19  1  0     0  0
 10 20  1  0     0  0
  9 10  1  0     0  0
 16 21  1  0     0  0
  4  5  1  0     0  0
 15 22  1  0     0  0
M  END
>  <prID>
302

>  <IDDB>
86545

>  <pIC50_HIV_Integrase>
5.769551079

>  <Q>
-2.288519178

>  <Activity_Integrase>
Inactive_Integrase

NA
NA
NA
NA
$$$$

  Accelrys05311914342D 1   1.00000     0.00000     0

 21 23  0     0  0            999 V2000
    3.6750   -2.4208    0.0000 C   0  0  0  0  0  0           0  0  0
    4.3916   -2.8417    0.0000 C   0  0  0  0  0  0           0  0  0
    2.9583   -2.8417    0.0000 C   0  0  0  0  0  0           0  0  0
    5.1083   -2.4333    0.0000 C   0  0  3  0  0  0           0  0  0
    4.3958   -1.1875    0.0000 N   0  0  0  0  0  0           0  0  0
    5.8209   -2.8458    0.0000 C   0  0  0  0  0  0           0  0  0
    4.3916   -3.6709    0.0000 C   0  0  0  0  0  0           0  0  0
    6.5333   -2.4333    0.0000 C   0  0  0  0  0  0           0  0  0
    7.2500   -2.8542    0.0000 C   0  0  0  0  0  0           0  0  0
    2.9583   -3.6709    0.0000 C   0  0  0  0  0  0           0  0  0
    7.2458   -3.6792    0.0000 C   0  0  0  0  0  0           0  0  0
    5.8167   -3.6709    0.0000 C   0  0  0  0  0  0           0  0  0
    3.6750   -1.5959    0.0000 C   0  0  0  0  0  0           0  0  0
    3.6750   -4.0792    0.0000 C   0  0  0  0  0  0           0  0  0
    6.5250   -4.0834    0.0000 C   0  0  0  0  0  0           0  0  0
    5.1167   -1.6042    0.0000 C   0  0  0  0  0  0           0  0  0
    2.2417   -2.4291    0.0000 O   0  0  0  0  0  0           0  0  0
    7.9583   -2.4333    0.0000 O   0  0  0  0  0  0           0  0  0
    7.9542   -4.0875    0.0000 O   0  0  0  0  0  0           0  0  0
    2.2417   -4.0792    0.0000 O   0  0  0  0  0  0           0  0  0
    2.2375   -4.9083    0.0000 C   0  0  0  0  0  0           0  0  0
  2  1  2  0     0  0
  3  1  1  0     0  0
  4  2  1  0     0  0
  5 13  1  0     0  0
  6  4  1  0     0  0
  7  2  1  0     0  0
  8  6  2  0     0  0
  9  8  1  0     0  0
 10  3  2  0     0  0
 11 15  1  0     0  0
 12  6  1  0     0  0
 13  1  1  0     0  0
 14 10  1  0     0  0
 15 12  2  0     0  0
 16  5  1  0     0  0
 17  3  1  0     0  0
 18  9  1  0     0  0
 19 11  1  0     0  0
 20 10  1  0     0  0
 21 20  1  0     0  0
 16  4  1  0     0  0
 14  7  2  0     0  0
 11  9  2  0     0  0
M  END
>  <prID>
303

>  <IDDB>
86546

>  <pIC50_HIV_Integrase>
5.045757491

>  <Q>
-2.477296553

>  <Activity_Integrase>
Inactive_Integrase

NA
NA
NA
NA
$$$$

  Accelrys05311914342D 1   1.00000     0.00000     0

 20 22  0     0  0            999 V2000
    4.1798   -3.1670    0.0000 C   0  0  0  0  0  0           0  0  0
    7.0467   -3.1576    0.0000 C   0  0  0  0  0  0           0  0  0
    7.2172   -3.9632    0.0000 N   0  0  0  0  0  0           0  0  0
    7.7574   -2.7440    0.0000 N   0  0  0  0  0  0           0  0  0
    8.0446   -4.0482    0.0000 N   0  0  0  0  0  0           0  0  0
    5.6161   -3.1622    0.0000 C   0  0  0  0  0  0           0  0  0
    4.9021   -2.7528    0.0000 C   0  0  0  0  0  0           0  0  0
    3.4340   -2.8301    0.0000 C   0  0  0  0  0  0           0  0  0
    4.0886   -3.9888    0.0000 C   0  0  0  0  0  0           0  0  0
    8.3692   -3.2913    0.0000 N   0  0  0  0  0  0           0  0  0
    6.3296   -2.7455    0.0000 C   0  0  0  0  0  0           0  0  0
    3.2916   -4.1560    0.0000 N   0  0  0  0  0  0           0  0  0
    2.8781   -3.4452    0.0000 C   0  0  0  0  0  0           0  0  0
    3.1789   -2.0436    0.0000 C   0  0  0  0  0  0           0  0  0
    4.9016   -1.9269    0.0000 O   0  0  0  0  0  0           0  0  0
    2.0726   -3.2678    0.0000 C   0  0  0  0  0  0           0  0  0
    2.3706   -1.8691    0.0000 C   0  0  0  0  0  0           0  0  0
    6.3322   -1.9223    0.0000 O   0  0  0  0  0  0           0  0  0
    1.8174   -2.4812    0.0000 C   0  0  0  0  0  0           0  0  0
    2.1123   -1.0797    0.0000 Cl  0  0  0  0  0  0           0  0  0
  2 11  1  0     0  0
  3  2  1  0     0  0
  4  2  2  0     0  0
  5  3  2  0     0  0
  6  7  1  0     0  0
  7  1  1  0     0  0
  8  1  1  0     0  0
  9  1  2  0     0  0
 10  4  1  0     0  0
 11  6  2  0     0  0
 12  9  1  0     0  0
 13  8  1  0     0  0
 14  8  2  0     0  0
 15  7  2  0     0  0
 16 13  2  0     0  0
 17 14  1  0     0  0
 18 11  1  0     0  0
 19 17  2  0     0  0
 20 17  1  0     0  0
 12 13  1  0     0  0
 19 16  1  0     0  0
 10  5  1  0     0  0
M  END
>  <prID>
304

>  <IDDB>
87314

>  <pIC50_HIV_Integrase>
5.677780705

>  <Q>
-2.964704886

>  <Activity_Integrase>
Inactive_Integrase

NA
NA
NA
NA
$$$$

  Accelrys05311914342D 1   1.00000     0.00000     0

 42 47  0     0  0            999 V2000
    1.7208    0.6542    0.0000 N   0  0  3  0  0  0           0  0  0
    1.1083    1.2167    0.0000 C   0  0  0  0  0  0           0  0  0
    1.3833   -0.0958    0.0000 C   0  0  0  0  0  0           0  0  0
    0.3833    0.8000    0.0000 C   0  0  0  0  0  0           0  0  0
    0.5583   -0.0167    0.0000 C   0  0  0  0  0  0           0  0  0
    1.1083    2.0458    0.0000 C   0  0  0  0  0  0           0  0  0
   -0.3292    1.2167    0.0000 C   0  0  0  0  0  0           0  0  0
    1.8625   -0.7583    0.0000 C   0  0  0  0  0  0           0  0  0
   -3.3125    2.4625    0.0000 S   0  0  3  0  0  0           0  0  0
   -0.3250    2.0500    0.0000 C   0  0  0  0  0  0           0  0  0
    0.3875    2.4625    0.0000 O   0  0  0  0  0  0           0  0  0
   -0.0375   -0.5958    0.0000 C   0  0  0  0  0  0           0  0  0
    2.5417    0.7417    0.0000 C   0  0  0  0  0  0           0  0  0
   -1.7625    2.0458    0.0000 C   0  0  0  0  0  0           0  0  0
    2.6833   -0.6833    0.0000 C   0  0  0  0  0  0           0  0  0
   -1.0458    2.4625    0.0000 C   0  0  0  0  0  0           0  0  0
   -1.0458    0.8000    0.0000 C   0  0  0  0  0  0           0  0  0
    1.5250   -1.5083    0.0000 C   0  0  0  0  0  0           0  0  0
   -2.4875    2.4625    0.0000 O   0  0  0  0  0  0           0  0  0
    3.0250    0.0708    0.0000 C   0  0  0  0  0  0           0  0  0
   -1.7625    1.2167    0.0000 C   0  0  0  0  0  0           0  0  0
   -0.8417   -0.3708    0.0000 C   0  0  0  0  0  0           0  0  0
    2.0000   -2.1792    0.0000 C   0  0  0  0  0  0           0  0  0
    3.1625   -1.3500    0.0000 C   0  0  0  0  0  0           0  0  0
    2.8208   -2.1000    0.0000 C   0  0  0  0  0  0           0  0  0
   -1.4375   -0.9583    0.0000 C   0  0  0  0  0  0           0  0  0
   -3.3167    1.6375    0.0000 O   0  0  0  0  0  0           0  0  0
   -3.3167    3.2875    0.0000 O   0  0  0  0  0  0           0  0  0
    1.8167    2.4667    0.0000 O   0  0  0  0  0  0           0  0  0
    0.1708   -1.4000    0.0000 C   0  0  0  0  0  0           0  0  0
   -1.2208   -1.7625    0.0000 C   0  0  0  0  0  0           0  0  0
   -4.1375    2.4625    0.0000 O   0  0  0  0  0  0           0  0  0
   -0.4167   -1.9833    0.0000 C   0  0  0  0  0  0           0  0  0
   -2.2417   -0.7333    0.0000 O   0  0  0  0  0  0           0  0  0
   -2.4875    0.8042    0.0000 O   0  0  0  0  0  0           0  0  0
    1.7833   -2.9792    0.0000 O   0  0  0  0  0  0           0  0  0
    3.2333   -2.8125    0.0000 O   0  0  0  0  0  0           0  0  0
   -1.8167   -2.3458    0.0000 O   0  0  0  0  0  0           0  0  0
    1.0792   -3.2625    0.0000 C   0  0  0  0  0  0           0  0  0
   -3.3167    0.8083    0.0000 C   0  0  0  0  0  0           0  0  0
    4.0292   -3.0250    0.0000 C   0  0  0  0  0  0           0  0  0
   -1.8208   -3.1750    0.0000 C   0  0  0  0  0  0           0  0  0
  2  1  1  0     0  0
  3  1  1  0     0  0
  4  2  2  0     0  0
  5  3  2  0     0  0
  6  2  1  0     0  0
  7  4  1  0     0  0
  8  3  1  0     0  0
  9 19  1  0     0  0
 10 11  1  0     0  0
 11  6  1  0     0  0
 12  5  1  0     0  0
 13  1  1  0     0  0
 14 16  1  0     0  0
 15  8  2  0     0  0
 16 10  2  0     0  0
 17  7  2  0     0  0
 18  8  1  0     0  0
 19 14  1  0     0  0
 20 13  2  0     0  0
 21 17  1  0     0  0
 22 12  2  0     0  0
 23 18  2  0     0  0
 24 15  1  0     0  0
 25 23  1  0     0  0
 26 22  1  0     0  0
 27  9  2  0     0  0
 28  9  2  0     0  0
 29  6  2  0     0  0
 30 12  1  0     0  0
 31 33  1  0     0  0
 32  9  1  0     0  0
 33 30  2  0     0  0
 34 26  1  0     0  0
 35 21  1  0     0  0
 36 23  1  0     0  0
 37 25  1  0     0  0
 38 31  1  0     0  0
 39 36  1  0     0  0
 40 35  1  0     0  0
 41 37  1  0     0  0
 42 38  1  0     0  0
  5  4  1  0     0  0
 20 15  1  0     0  0
 10  7  1  0     0  0
 25 24  2  0     0  0
 14 21  2  0     0  0
 31 26  2  0     0  0
M  END
>  <prID>
305

>  <IDDB>
88104

>  <pIC50_HIV_Integrase>
4.657577319

>  <Q>
-1.84149563

>  <Activity_Integrase>
Inactive_Integrase

NA
NA
NA
NA
$$$$

  Accelrys05311914342D 1   1.00000     0.00000     0

 42 47  0     0  0            999 V2000
    1.1083    1.2167    0.0000 C   0  0  0  0  0  0           0  0  0
    1.7208    0.6542    0.0000 N   0  0  3  0  0  0           0  0  0
    1.3833   -0.0958    0.0000 C   0  0  0  0  0  0           0  0  0
    0.3833    0.8000    0.0000 C   0  0  0  0  0  0           0  0  0
    0.5583   -0.0167    0.0000 C   0  0  0  0  0  0           0  0  0
    1.1083    2.0458    0.0000 C   0  0  0  0  0  0           0  0  0
   -0.3292    1.2167    0.0000 C   0  0  0  0  0  0           0  0  0
    1.8625   -0.7583    0.0000 C   0  0  0  0  0  0           0  0  0
   -3.3125    2.4625    0.0000 S   0  0  3  0  0  0           0  0  0
   -0.3250    2.0500    0.0000 C   0  0  0  0  0  0           0  0  0
    0.3875    2.4625    0.0000 O   0  0  0  0  0  0           0  0  0
   -0.0375   -0.5958    0.0000 C   0  0  0  0  0  0           0  0  0
   -1.7625    2.0458    0.0000 C   0  0  0  0  0  0           0  0  0
    2.6833   -0.6833    0.0000 C   0  0  0  0  0  0           0  0  0
   -1.0458    2.4625    0.0000 C   0  0  0  0  0  0           0  0  0
   -1.0458    0.8000    0.0000 C   0  0  0  0  0  0           0  0  0
    1.5250   -1.5083    0.0000 C   0  0  0  0  0  0           0  0  0
   -2.4875    2.4625    0.0000 O   0  0  0  0  0  0           0  0  0
    2.5417    0.7417    0.0000 C   0  0  0  0  0  0           0  0  0
   -1.7625    1.2167    0.0000 C   0  0  0  0  0  0           0  0  0
   -0.8417   -0.3708    0.0000 C   0  0  0  0  0  0           0  0  0
    2.0000   -2.1792    0.0000 C   0  0  0  0  0  0           0  0  0
    3.1625   -1.3500    0.0000 C   0  0  0  0  0  0           0  0  0
    2.8208   -2.1000    0.0000 C   0  0  0  0  0  0           0  0  0
   -1.4375   -0.9583    0.0000 C   0  0  0  0  0  0           0  0  0
   -3.3167    1.6375    0.0000 O   0  0  0  0  0  0           0  0  0
   -3.3167    3.2875    0.0000 O   0  0  0  0  0  0           0  0  0
    1.8167    2.4667    0.0000 O   0  0  0  0  0  0           0  0  0
    3.0250    0.0708    0.0000 C   0  0  0  0  0  0           0  0  0
    0.1708   -1.4000    0.0000 C   0  0  0  0  0  0           0  0  0
   -1.2208   -1.7625    0.0000 C   0  0  0  0  0  0           0  0  0
   -4.1375    2.4625    0.0000 O   0  0  0  0  0  0           0  0  0
   -0.4167   -1.9833    0.0000 C   0  0  0  0  0  0           0  0  0
   -2.2417   -0.7333    0.0000 O   0  0  0  0  0  0           0  0  0
   -2.4875    0.8042    0.0000 O   0  0  0  0  0  0           0  0  0
    1.7833   -2.9792    0.0000 O   0  0  0  0  0  0           0  0  0
    3.2333   -2.8125    0.0000 O   0  0  0  0  0  0           0  0  0
   -1.8167   -2.3458    0.0000 O   0  0  0  0  0  0           0  0  0
    1.0792   -3.2625    0.0000 C   0  0  0  0  0  0           0  0  0
   -3.3167    0.8083    0.0000 C   0  0  0  0  0  0           0  0  0
    4.0292   -3.0250    0.0000 C   0  0  0  0  0  0           0  0  0
   -1.8208   -3.1750    0.0000 C   0  0  0  0  0  0           0  0  0
  2  1  1  0     0  0
  3  2  1  0     0  0
  4  1  2  0     0  0
  5  4  1  0     0  0
  6  1  1  0     0  0
  7  4  1  0     0  0
  8  3  1  0     0  0
  9 18  1  0     0  0
 10 11  1  0     0  0
 11  6  1  0     0  0
 12  5  1  0     0  0
 13 15  1  0     0  0
 14  8  2  0     0  0
 15 10  2  0     0  0
 16  7  2  0     0  0
 17  8  1  0     0  0
 18 13  1  0     0  0
 19  2  1  0     0  0
 20 16  1  0     0  0
 21 12  2  0     0  0
 22 17  2  0     0  0
 23 14  1  0     0  0
 24 22  1  0     0  0
 25 21  1  0     0  0
 26  9  2  0     0  0
 27  9  2  0     0  0
 28  6  2  0     0  0
 29 19  1  0     0  0
 30 12  1  0     0  0
 31 33  1  0     0  0
 32  9  1  0     0  0
 33 30  2  0     0  0
 34 25  1  0     0  0
 35 20  1  0     0  0
 36 22  1  0     0  0
 37 24  1  0     0  0
 38 31  1  0     0  0
 39 36  1  0     0  0
 40 35  1  0     0  0
 41 37  1  0     0  0
 42 38  1  0     0  0
  3  5  2  0     0  0
 10  7  1  0     0  0
 29 14  1  0     0  0
 13 20  2  0     0  0
 24 23  2  0     0  0
 31 25  2  0     0  0
M  END
>  <prID>
306

>  <IDDB>
88105

>  <pIC50_HIV_Integrase>
4.602059991

>  <Q>
-2.679309427

>  <Activity_Integrase>
Inactive_Integrase

NA
NA
NA
NA
$$$$

  Accelrys05311914342D 1   1.00000     0.00000     0

 45 50  0     0  0            999 V2000
    1.4667    0.6958    0.0000 N   0  0  3  0  0  0           0  0  0
    0.8542    1.2583    0.0000 C   0  0  0  0  0  0           0  0  0
    1.1292   -0.0583    0.0000 C   0  0  0  0  0  0           0  0  0
    0.1292    0.8417    0.0000 C   0  0  0  0  0  0           0  0  0
    0.3042    0.0250    0.0000 C   0  0  0  0  0  0           0  0  0
    0.8542    2.0875    0.0000 C   0  0  0  0  0  0           0  0  0
    1.6083   -0.7167    0.0000 C   0  0  0  0  0  0           0  0  0
   -0.5833    1.2583    0.0000 C   0  0  0  0  0  0           0  0  0
    2.4292   -0.6417    0.0000 C   0  0  0  0  0  0           0  0  0
   -3.5667    2.5042    0.0000 S   0  0  3  0  0  0           0  0  0
    2.2875    0.7833    0.0000 C   0  0  3  0  0  0           0  0  0
   -0.5833    2.0917    0.0000 C   0  0  0  0  0  0           0  0  0
    0.1333    2.5042    0.0000 O   0  0  0  0  0  0           0  0  0
   -0.2917   -0.5542    0.0000 C   0  0  0  0  0  0           0  0  0
    2.9083   -1.3083    0.0000 C   0  0  0  0  0  0           0  0  0
    2.5667   -2.0583    0.0000 C   0  0  0  0  0  0           0  0  0
   -2.0208    2.0875    0.0000 C   0  0  0  0  0  0           0  0  0
    2.7708    0.1125    0.0000 C   0  0  0  0  0  0           0  0  0
    1.2708   -1.4667    0.0000 C   0  0  0  0  0  0           0  0  0
   -1.3000    2.5000    0.0000 C   0  0  0  0  0  0           0  0  0
   -1.3000    0.8417    0.0000 C   0  0  0  0  0  0           0  0  0
    1.7458   -2.1375    0.0000 C   0  0  0  0  0  0           0  0  0
   -2.7417    2.5042    0.0000 O   0  0  0  0  0  0           0  0  0
   -2.0208    1.2583    0.0000 C   0  0  0  0  0  0           0  0  0
   -1.0958   -0.3292    0.0000 C   0  0  0  0  0  0           0  0  0
   -1.6917   -0.9167    0.0000 C   0  0  0  0  0  0           0  0  0
   -3.5708    1.6792    0.0000 O   0  0  0  0  0  0           0  0  0
   -3.5708    3.3292    0.0000 O   0  0  0  0  0  0           0  0  0
    1.5625    2.5083    0.0000 O   0  0  0  0  0  0           0  0  0
   -0.0833   -1.3583    0.0000 C   0  0  0  0  0  0           0  0  0
   -1.4792   -1.7208    0.0000 C   0  0  0  0  0  0           0  0  0
   -4.3917    2.5042    0.0000 O   0  0  0  0  0  0           0  0  0
   -0.6708   -1.9417    0.0000 C   0  0  0  0  0  0           0  0  0
    2.6917    1.5000    0.0000 O   0  0  0  0  0  0           0  0  0
    2.9792   -2.7708    0.0000 O   0  0  0  0  0  0           0  0  0
    3.7292   -1.3083    0.0000 O   0  0  0  0  0  0           0  0  0
    1.5292   -2.9375    0.0000 O   0  0  0  0  0  0           0  0  0
   -2.4958   -0.6917    0.0000 O   0  0  0  0  0  0           0  0  0
   -2.7417    0.8458    0.0000 O   0  0  0  0  0  0           0  0  0
   -2.0708   -2.3042    0.0000 O   0  0  0  0  0  0           0  0  0
    3.7750   -2.9833    0.0000 C   0  0  0  0  0  0           0  0  0
    4.3125   -1.8917    0.0000 C   0  0  0  0  0  0           0  0  0
    0.8250   -3.2208    0.0000 C   0  0  0  0  0  0           0  0  0
   -3.5708    0.8500    0.0000 C   0  0  0  0  0  0           0  0  0
   -2.0750   -3.1333    0.0000 C   0  0  0  0  0  0           0  0  0
  2  1  1  0     0  0
  3  1  1  0     0  0
  4  2  2  0     0  0
  5  3  2  0     0  0
  6  2  1  0     0  0
  7  3  1  0     0  0
  8  4  1  0     0  0
  9 18  1  0     0  0
 10 23  1  0     0  0
 11  1  1  0     0  0
 12  8  1  0     0  0
 13  6  1  0     0  0
 14  5  1  0     0  0
 15  9  1  0     0  0
 16 15  2  0     0  0
 17 24  2  0     0  0
 18 11  1  0     0  0
 19  7  1  0     0  0
 20 12  2  0     0  0
 21  8  2  0     0  0
 22 19  2  0     0  0
 23 17  1  0     0  0
 24 21  1  0     0  0
 25 14  2  0     0  0
 26 25  1  0     0  0
 27 10  2  0     0  0
 28 10  2  0     0  0
 29  6  2  0     0  0
 30 14  1  0     0  0
 31 33  1  0     0  0
 32 10  1  0     0  0
 33 30  2  0     0  0
 11 34  1  4     0  0
 35 16  1  0     0  0
 36 15  1  0     0  0
 37 22  1  0     0  0
 38 26  1  0     0  0
 39 24  1  0     0  0
 40 31  1  0     0  0
 41 35  1  0     0  0
 42 36  1  0     0  0
 43 37  1  0     0  0
 44 39  1  0     0  0
 45 40  1  0     0  0
  4  5  1  0     0  0
  9  7  2  0     0  0
 13 12  1  0     0  0
 16 22  1  0     0  0
 17 20  1  0     0  0
 31 26  2  0     0  0
M  END
>  <prID>
307

>  <IDDB>
88106

>  <pIC50_HIV_Integrase>
4.292429824

>  <Q>
-3.848832055

>  <Activity_Integrase>
Inactive_Integrase

NA
NA
NA
NA
$$$$

  Accelrys05311914342D 1   1.00000     0.00000     0

 40 45  0     0  0            999 V2000
    0.5417    1.5417    0.0000 C   0  0  0  0  0  0           0  0  0
    1.1583    0.9833    0.0000 N   0  0  3  0  0  0           0  0  0
    0.8167    0.2292    0.0000 C   0  0  0  0  0  0           0  0  0
   -0.1833    1.1292    0.0000 C   0  0  0  0  0  0           0  0  0
   -0.0042    0.3125    0.0000 C   0  0  0  0  0  0           0  0  0
    0.5417    2.3750    0.0000 C   0  0  0  0  0  0           0  0  0
    1.3000   -0.4333    0.0000 C   0  0  0  0  0  0           0  0  0
   -0.8958    1.5417    0.0000 C   0  0  0  0  0  0           0  0  0
   -0.8917    2.3792    0.0000 C   0  0  0  0  0  0           0  0  0
    2.1167   -0.3583    0.0000 C   0  0  0  0  0  0           0  0  0
   -0.1792    2.7917    0.0000 O   0  0  0  0  0  0           0  0  0
   -0.6000   -0.2667    0.0000 C   0  0  0  0  0  0           0  0  0
    2.6000   -1.0208    0.0000 C   0  0  0  0  0  0           0  0  0
    2.2583   -1.7708    0.0000 C   0  0  0  0  0  0           0  0  0
    0.9583   -1.1792    0.0000 C   0  0  0  0  0  0           0  0  0
   -1.6125    1.1250    0.0000 C   0  0  0  0  0  0           0  0  0
    1.4375   -1.8542    0.0000 C   0  0  0  0  0  0           0  0  0
    1.9792    1.0667    0.0000 C   0  0  0  0  0  0           0  0  0
   -1.6125    2.7875    0.0000 C   0  0  0  0  0  0           0  0  0
    2.4583    0.4000    0.0000 C   0  0  0  0  0  0           0  0  0
   -1.4042   -0.0417    0.0000 C   0  0  0  0  0  0           0  0  0
   -2.3292    2.3750    0.0000 C   0  0  0  0  0  0           0  0  0
   -2.3292    1.5417    0.0000 C   0  0  0  0  0  0           0  0  0
   -2.0000   -0.6292    0.0000 C   0  0  0  0  0  0           0  0  0
    1.2542    2.7958    0.0000 O   0  0  0  0  0  0           0  0  0
   -0.3958   -1.0708    0.0000 C   0  0  0  0  0  0           0  0  0
   -1.7875   -1.4375    0.0000 C   0  0  0  0  0  0           0  0  0
   -0.9833   -1.6583    0.0000 C   0  0  0  0  0  0           0  0  0
    2.6667   -2.4833    0.0000 O   0  0  0  0  0  0           0  0  0
    3.4167   -1.0208    0.0000 O   0  0  0  0  0  0           0  0  0
    1.2167   -2.6500    0.0000 O   0  0  0  0  0  0           0  0  0
   -3.0542    2.7917    0.0000 O   0  0  0  0  0  0           0  0  0
   -2.8042   -0.4042    0.0000 O   0  0  0  0  0  0           0  0  0
   -3.0542    1.1333    0.0000 O   0  0  0  0  0  0           0  0  0
   -2.3833   -2.0167    0.0000 O   0  0  0  0  0  0           0  0  0
    3.4625   -2.7000    0.0000 C   0  0  0  0  0  0           0  0  0
    4.0000   -1.6042    0.0000 C   0  0  0  0  0  0           0  0  0
    0.5167   -2.9375    0.0000 C   0  0  0  0  0  0           0  0  0
   -3.8833    1.1375    0.0000 C   0  0  0  0  0  0           0  0  0
   -2.3833   -2.8458    0.0000 C   0  0  0  0  0  0           0  0  0
  2  1  1  0     0  0
  3  2  1  0     0  0
  4  1  2  0     0  0
  5  4  1  0     0  0
  6  1  1  0     0  0
  7  3  1  0     0  0
  8  4  1  0     0  0
  9 11  1  0     0  0
 10  7  2  0     0  0
 11  6  1  0     0  0
 12  5  1  0     0  0
 13 10  1  0     0  0
 14 17  1  0     0  0
 15  7  1  0     0  0
 16  8  2  0     0  0
 17 15  2  0     0  0
 18  2  1  0     0  0
 19  9  2  0     0  0
 20 18  1  0     0  0
 21 12  2  0     0  0
 22 19  1  0     0  0
 23 16  1  0     0  0
 24 21  1  0     0  0
 25  6  2  0     0  0
 26 12  1  0     0  0
 27 28  1  0     0  0
 28 26  2  0     0  0
 29 14  1  0     0  0
 30 13  1  0     0  0
 31 17  1  0     0  0
 32 22  1  0     0  0
 33 24  1  0     0  0
 34 23  1  0     0  0
 35 27  1  0     0  0
 36 29  1  0     0  0
 37 30  1  0     0  0
 38 31  1  0     0  0
 39 34  1  0     0  0
 40 35  1  0     0  0
  3  5  2  0     0  0
  9  8  1  0     0  0
 20 10  1  0     0  0
 22 23  2  0     0  0
 14 13  2  0     0  0
 27 24  2  0     0  0
M  END
>  <prID>
308

>  <IDDB>
88107

>  <pIC50_HIV_Integrase>
4.619788758

>  <Q>
-1.645631038

>  <Activity_Integrase>
Inactive_Integrase

NA
NA
NA
NA
$$$$

  Accelrys05311914342D 1   1.00000     0.00000     0

 40 45  0     0  0            999 V2000
    1.1583    0.9833    0.0000 N   0  0  3  0  0  0           0  0  0
    0.5417    1.5417    0.0000 C   0  0  0  0  0  0           0  0  0
    0.8167    0.2292    0.0000 C   0  0  0  0  0  0           0  0  0
   -0.1833    1.1292    0.0000 C   0  0  0  0  0  0           0  0  0
   -0.0042    0.3125    0.0000 C   0  0  0  0  0  0           0  0  0
    0.5417    2.3750    0.0000 C   0  0  0  0  0  0           0  0  0
    1.3000   -0.4333    0.0000 C   0  0  0  0  0  0           0  0  0
   -0.8958    1.5417    0.0000 C   0  0  0  0  0  0           0  0  0
    2.1167   -0.3583    0.0000 C   0  0  0  0  0  0           0  0  0
   -0.8917    2.3792    0.0000 C   0  0  0  0  0  0           0  0  0
   -0.1792    2.7917    0.0000 O   0  0  0  0  0  0           0  0  0
    1.9792    1.0667    0.0000 C   0  0  0  0  0  0           0  0  0
   -0.6000   -0.2667    0.0000 C   0  0  0  0  0  0           0  0  0
    2.6000   -1.0208    0.0000 C   0  0  0  0  0  0           0  0  0
    2.2583   -1.7708    0.0000 C   0  0  0  0  0  0           0  0  0
    2.4583    0.4000    0.0000 C   0  0  0  0  0  0           0  0  0
    0.9583   -1.1792    0.0000 C   0  0  0  0  0  0           0  0  0
   -1.6125    1.1250    0.0000 C   0  0  0  0  0  0           0  0  0
    1.4375   -1.8542    0.0000 C   0  0  0  0  0  0           0  0  0
   -1.6125    2.7875    0.0000 C   0  0  0  0  0  0           0  0  0
   -1.4042   -0.0417    0.0000 C   0  0  0  0  0  0           0  0  0
   -2.3292    2.3750    0.0000 C   0  0  0  0  0  0           0  0  0
   -2.3292    1.5417    0.0000 C   0  0  0  0  0  0           0  0  0
   -2.0000   -0.6292    0.0000 C   0  0  0  0  0  0           0  0  0
    1.2542    2.7958    0.0000 O   0  0  0  0  0  0           0  0  0
   -0.3958   -1.0708    0.0000 C   0  0  0  0  0  0           0  0  0
   -1.7875   -1.4375    0.0000 C   0  0  0  0  0  0           0  0  0
   -0.9833   -1.6583    0.0000 C   0  0  0  0  0  0           0  0  0
    2.6667   -2.4833    0.0000 O   0  0  0  0  0  0           0  0  0
    3.4167   -1.0208    0.0000 O   0  0  0  0  0  0           0  0  0
    1.2167   -2.6500    0.0000 O   0  0  0  0  0  0           0  0  0
   -3.0542    2.7917    0.0000 O   0  0  0  0  0  0           0  0  0
   -2.8042   -0.4042    0.0000 O   0  0  0  0  0  0           0  0  0
   -3.0542    1.1333    0.0000 O   0  0  0  0  0  0           0  0  0
   -2.3833   -2.0167    0.0000 O   0  0  0  0  0  0           0  0  0
    3.4625   -2.7000    0.0000 C   0  0  0  0  0  0           0  0  0
    4.0000   -1.6042    0.0000 C   0  0  0  0  0  0           0  0  0
    0.5167   -2.9375    0.0000 C   0  0  0  0  0  0           0  0  0
   -3.8833    1.1375    0.0000 C   0  0  0  0  0  0           0  0  0
   -2.3833   -2.8458    0.0000 C   0  0  0  0  0  0           0  0  0
  2  1  1  0     0  0
  3  1  1  0     0  0
  4  2  2  0     0  0
  5  3  2  0     0  0
  6  2  1  0     0  0
  7  3  1  0     0  0
  8  4  1  0     0  0
  9  7  2  0     0  0
 10 11  1  0     0  0
 11  6  1  0     0  0
 12  1  1  0     0  0
 13  5  1  0     0  0
 14  9  1  0     0  0
 15 19  1  0     0  0
 16 12  2  0     0  0
 17  7  1  0     0  0
 18  8  2  0     0  0
 19 17  2  0     0  0
 20 10  2  0     0  0
 21 13  2  0     0  0
 22 20  1  0     0  0
 23 18  1  0     0  0
 24 21  1  0     0  0
 25  6  2  0     0  0
 26 13  1  0     0  0
 27 28  1  0     0  0
 28 26  2  0     0  0
 29 15  1  0     0  0
 30 14  1  0     0  0
 31 19  1  0     0  0
 32 22  1  0     0  0
 33 24  1  0     0  0
 34 23  1  0     0  0
 35 27  1  0     0  0
 36 29  1  0     0  0
 37 30  1  0     0  0
 38 31  1  0     0  0
 39 34  1  0     0  0
 40 35  1  0     0  0
  5  4  1  0     0  0
 16  9  1  0     0  0
 10  8  1  0     0  0
 15 14  2  0     0  0
 22 23  2  0     0  0
 27 24  2  0     0  0
M  END
>  <prID>
309

>  <IDDB>
88108

>  <pIC50_HIV_Integrase>
4.853871964

>  <Q>
-0.811020779

>  <Activity_Integrase>
Inactive_Integrase

NA
NA
NA
NA
$$$$

  Accelrys05311914342D 1   1.00000     0.00000     0

 37 42  0     0  0            999 V2000
    1.4500    0.8375    0.0000 N   0  0  3  0  0  0           0  0  0
    0.8375    1.4000    0.0000 C   0  0  0  0  0  0           0  0  0
    1.1125    0.0833    0.0000 C   0  0  0  0  0  0           0  0  0
    0.1125    0.9833    0.0000 C   0  0  0  0  0  0           0  0  0
    0.2875    0.1667    0.0000 C   0  0  0  0  0  0           0  0  0
    0.8375    2.2292    0.0000 C   0  0  0  0  0  0           0  0  0
   -0.6000    1.4000    0.0000 C   0  0  0  0  0  0           0  0  0
    1.5917   -0.5792    0.0000 C   0  0  0  0  0  0           0  0  0
   -0.6000    2.2333    0.0000 C   0  0  0  0  0  0           0  0  0
    0.1167    2.6458    0.0000 O   0  0  0  0  0  0           0  0  0
   -0.3083   -0.4125    0.0000 C   0  0  0  0  0  0           0  0  0
    2.2708    0.9208    0.0000 C   0  0  0  0  0  0           0  0  0
    2.4125   -0.5000    0.0000 C   0  0  0  0  0  0           0  0  0
   -1.3208    0.9833    0.0000 C   0  0  0  0  0  0           0  0  0
    1.2542   -1.3250    0.0000 C   0  0  0  0  0  0           0  0  0
   -1.3208    2.6417    0.0000 C   0  0  0  0  0  0           0  0  0
    2.7542    0.2542    0.0000 C   0  0  0  0  0  0           0  0  0
   -1.1125   -0.1875    0.0000 C   0  0  0  0  0  0           0  0  0
   -2.0375    2.2292    0.0000 C   0  0  0  0  0  0           0  0  0
   -2.0375    1.4000    0.0000 C   0  0  0  0  0  0           0  0  0
    1.7292   -2.0000    0.0000 C   0  0  0  0  0  0           0  0  0
    2.8917   -1.1667    0.0000 C   0  0  0  0  0  0           0  0  0
    2.5500   -1.9167    0.0000 C   0  0  0  0  0  0           0  0  0
   -1.7083   -0.7750    0.0000 C   0  0  0  0  0  0           0  0  0
    1.5458    2.6500    0.0000 O   0  0  0  0  0  0           0  0  0
   -0.1000   -1.2167    0.0000 C   0  0  0  0  0  0           0  0  0
   -1.4958   -1.5792    0.0000 C   0  0  0  0  0  0           0  0  0
   -0.6875   -1.8000    0.0000 C   0  0  0  0  0  0           0  0  0
   -2.7625    2.6458    0.0000 O   0  0  0  0  0  0           0  0  0
    2.9583   -2.6292    0.0000 O   0  0  0  0  0  0           0  0  0
   -2.5125   -0.5500    0.0000 O   0  0  0  0  0  0           0  0  0
    1.5125   -2.7958    0.0000 O   0  0  0  0  0  0           0  0  0
   -2.7625    0.9875    0.0000 O   0  0  0  0  0  0           0  0  0
   -2.0875   -2.1625    0.0000 O   0  0  0  0  0  0           0  0  0
   -3.5875    0.9917    0.0000 C   0  0  0  0  0  0           0  0  0
    0.8083   -3.0792    0.0000 C   0  0  0  0  0  0           0  0  0
   -2.0917   -2.9917    0.0000 C   0  0  0  0  0  0           0  0  0
  2  1  1  0     0  0
  3  1  1  0     0  0
  4  2  2  0     0  0
  5  3  2  0     0  0
  6  2  1  0     0  0
  7  4  1  0     0  0
  8  3  1  0     0  0
  9 10  1  0     0  0
 10  6  1  0     0  0
 11  5  1  0     0  0
 12  1  1  0     0  0
 13  8  2  0     0  0
 14  7  2  0     0  0
 15  8  1  0     0  0
 16  9  2  0     0  0
 17 12  2  0     0  0
 18 11  2  0     0  0
 19 16  1  0     0  0
 20 14  1  0     0  0
 21 15  2  0     0  0
 22 13  1  0     0  0
 23 21  1  0     0  0
 24 18  1  0     0  0
 25  6  2  0     0  0
 26 11  1  0     0  0
 27 28  1  0     0  0
 28 26  2  0     0  0
 29 19  1  0     0  0
 30 23  1  0     0  0
 31 24  1  0     0  0
 32 21  1  0     0  0
 33 20  1  0     0  0
 34 27  1  0     0  0
 35 33  1  0     0  0
 36 32  1  0     0  0
 37 34  1  0     0  0
  5  4  1  0     0  0
 17 13  1  0     0  0
  9  7  1  0     0  0
 23 22  2  0     0  0
 19 20  2  0     0  0
 27 24  2  0     0  0
M  END
>  <prID>
310

>  <IDDB>
88109

>  <pIC50_HIV_Integrase>
4.721246399

>  <Q>
-1.159338771

>  <Activity_Integrase>
Inactive_Integrase

NA
NA
NA
NA
$$$$

  Accelrys05311914342D 1   1.00000     0.00000     0

 37 41  0     0  0            999 V2000
    5.0208   -1.9708    0.0000 N   0  0  3  0  0  0           0  0  0
    7.9375   -4.6750    0.0000 N   0  0  3  0  0  0           0  0  0
    8.6125   -4.3791    0.0000 C   0  0  0  0  0  0           0  0  0
    8.6125   -3.7209    0.0000 N   0  0  0  0  0  0           0  0  0
    5.7000   -1.7375    0.0000 C   0  0  0  0  0  0           0  0  0
    5.7000   -0.9500    0.0000 C   0  0  0  0  0  0           0  0  0
    7.5792   -5.9666    0.0000 C   0  0  2  0  0  0           0  0  0
    4.5083   -3.5500    0.0000 C   0  0  1  0  0  0           0  0  0
    5.0125   -0.7250    0.0000 N   0  0  0  0  0  0           0  0  0
    3.7584   -3.5875    0.0000 C   0  0  2  0  0  0           0  0  0
    4.5875   -1.3416    0.0000 C   0  0  0  0  0  0           0  0  0
    3.7417   -5.2750    0.0000 P   0  0  3  0  0  0           0  0  0
    7.4291   -4.3791    0.0000 C   0  0  0  0  0  0           0  0  0
    6.5875   -5.5375    0.0000 O   0  0  0  0  0  0           0  0  0
    7.1250   -6.6167    0.0000 C   0  0  0  0  0  0           0  0  0
    7.4291   -3.7209    0.0000 C   0  0  0  0  0  0           0  0  0
    8.0167   -3.3875    0.0000 C   0  0  0  0  0  0           0  0  0
    6.3333   -0.5625    0.0000 C   0  0  0  0  0  0           0  0  0
    5.7291   -5.9750    0.0000 C   0  0  1  0  0  0           0  0  0
    6.3458   -2.1166    0.0000 N   0  0  0  0  0  0           0  0  0
    3.7709   -4.3333    0.0000 O   0  0  0  0  0  0           0  0  0
    4.1333   -2.4291    0.0000 O   0  0  0  0  0  0           0  0  0
    3.2666   -2.9458    0.0000 C   0  0  2  0  0  0           0  0  0
    5.0500   -2.9708    0.0000 C   0  0  0  0  0  0           0  0  0
    6.9750   -0.9375    0.0000 N   0  0  0  0  0  0           0  0  0
    6.1042   -6.6208    0.0000 C   0  0  1  0  0  0           0  0  0
    5.7208   -5.2833    0.0000 C   0  0  0  0  0  0           0  0  0
    6.9750   -1.7334    0.0000 C   0  0  0  0  0  0           0  0  0
    9.1167   -4.7125    0.0000 O   0  0  0  0  0  0           0  0  0
    4.5875   -5.2750    0.0000 O   0  0  0  0  0  0           0  0  0
    3.7417   -6.2583    0.0000 O   0  0  0  0  0  0           0  0  0
    3.1208   -5.2750    0.0000 O   0  0  0  0  0  0           0  0  0
    8.0125   -2.7417    0.0000 N   0  0  0  0  0  0           0  0  0
    6.3291    0.2042    0.0000 N   0  0  0  0  0  0           0  0  0
    5.6959   -7.3125    0.0000 O   0  0  0  0  0  0           0  0  0
    3.1750   -2.1416    0.0000 C   0  0  0  0  0  0           0  0  0
    2.3959   -2.1541    0.0000 O   0  0  0  0  0  0           0  0  0
  7  2  1  1     0  0
  3  2  1  0     0  0
  4  3  1  0     0  0
  5  1  1  0     0  0
  6  5  2  0     0  0
  7 14  1  0     0  0
  8  1  1  1     0  0
  9 11  2  0     0  0
 10  8  1  0     0  0
 11  1  1  0     0  0
 12 21  1  0     0  0
 13  2  1  0     0  0
 14 19  1  0     0  0
 15 26  1  0     0  0
 16 13  2  0     0  0
 17 16  1  0     0  0
 18  6  1  0     0  0
 19 27  1  1     0  0
 20  5  1  0     0  0
 10 21  1  6     0  0
 22 24  1  0     0  0
 23 10  1  0     0  0
 24  8  1  0     0  0
 25 28  1  0     0  0
 26 19  1  0     0  0
 27 30  1  0     0  0
 28 20  2  0     0  0
 29  3  2  0     0  0
 30 12  1  0     0  0
 31 12  2  0     0  0
 32 12  1  0     0  0
 33 17  1  0     0  0
 34 18  1  0     0  0
 26 35  1  6     0  0
 23 36  1  1     0  0
 37 36  1  0     0  0
  9  6  1  0     0  0
 22 23  1  0     0  0
 25 18  2  0     0  0
 15  7  1  0     0  0
 17  4  2  0     0  0
M  END
>  <prID>
311

>  <IDDB>
88131

>  <pIC50_HIV_Integrase>
3.698970004

>  <Q>
-9.416980189

>  <Activity_Integrase>
Inactive_Integrase

NA
NA
NA
NA
$$$$

  Accelrys05311914342D 1   1.00000     0.00000     0

 41 45  0     0  0            999 V2000
    5.9084   -2.0000    0.0000 N   0  0  3  0  0  0           0  0  0
    8.7667   -4.6458    0.0000 N   0  0  1  0  0  0           0  0  0
    9.4292   -4.3625    0.0000 C   0  0  0  0  0  0           0  0  0
    9.4292   -3.7166    0.0000 N   0  0  0  0  0  0           0  0  0
    6.5750   -1.7708    0.0000 C   0  0  0  0  0  0           0  0  0
    6.5750   -1.0041    0.0000 C   0  0  0  0  0  0           0  0  0
    8.4167   -5.9124    0.0000 C   0  0  3  0  0  0           0  0  0
    5.4084   -3.5458    0.0000 C   0  0  1  0  0  0           0  0  0
    5.9042   -0.7750    0.0000 N   0  0  0  0  0  0           0  0  0
    4.6709   -3.5875    0.0000 C   0  0  2  0  0  0           0  0  0
    5.4833   -1.3875    0.0000 C   0  0  0  0  0  0           0  0  0
    4.6542   -5.2416    0.0000 P   0  0  3  0  0  0           0  0  0
    8.2709   -4.3625    0.0000 C   0  0  0  0  0  0           0  0  0
    7.4458   -5.4958    0.0000 O   0  0  0  0  0  0           0  0  0
    2.5083   -2.1833    0.0000 P   0  0  3  0  0  0           0  0  0
    7.9708   -6.5541    0.0000 C   0  0  0  0  0  0           0  0  0
    8.2709   -3.7166    0.0000 C   0  0  0  0  0  0           0  0  0
    8.8459   -3.3833    0.0000 C   0  0  0  0  0  0           0  0  0
    7.2000   -0.6208    0.0000 C   0  0  0  0  0  0           0  0  0
    6.6042   -5.9249    0.0000 C   0  0  1  0  0  0           0  0  0
    7.2084   -2.1374    0.0000 N   0  0  0  0  0  0           0  0  0
    4.6875   -4.3167    0.0000 O   0  0  0  0  0  0           0  0  0
    4.1917   -2.9583    0.0000 C   0  0  2  0  0  0           0  0  0
    5.0458   -2.4542    0.0000 O   0  0  0  0  0  0           0  0  0
    6.0042   -2.9000    0.0000 C   0  0  0  0  0  0           0  0  0
    7.8250   -0.9916    0.0000 N   0  0  0  0  0  0           0  0  0
    6.9709   -6.5624    0.0000 C   0  0  1  0  0  0           0  0  0
    6.5959   -5.2499    0.0000 C   0  0  0  0  0  0           0  0  0
    7.8292   -1.7667    0.0000 C   0  0  0  0  0  0           0  0  0
    9.9250   -4.6874    0.0000 O   0  0  0  0  0  0           0  0  0
    4.1000   -2.1708    0.0000 C   0  0  0  0  0  0           0  0  0
    5.4875   -5.2416    0.0000 O   0  0  0  0  0  0           0  0  0
    3.3417   -2.1833    0.0000 O   0  0  0  0  0  0           0  0  0
    4.6542   -6.2041    0.0000 O   0  0  0  0  0  0           0  0  0
    2.5167   -2.9333    0.0000 O   0  0  0  0  0  0           0  0  0
    3.6458   -5.2291    0.0000 O   0  0  0  0  0  0           0  0  0
    1.5959   -2.1999    0.0000 O   0  0  0  0  0  0           0  0  0
    2.5375   -1.2541    0.0000 O   0  0  0  0  0  0           0  0  0
    8.8417   -2.7541    0.0000 N   0  0  0  0  0  0           0  0  0
    7.1959    0.1333    0.0000 N   0  0  0  0  0  0           0  0  0
    6.5709   -7.2333    0.0000 O   0  0  0  0  0  0           0  0  0
  2  7  1  1     0  0
  3  2  1  0     0  0
  4  3  1  0     0  0
  5  1  1  0     0  0
  6  5  2  0     0  0
  7 14  1  0     0  0
  8  1  1  1     0  0
  9 11  2  0     0  0
 10  8  1  0     0  0
 11  1  1  0     0  0
 12 22  1  0     0  0
 13  2  1  0     0  0
 14 20  1  0     0  0
 15 33  1  0     0  0
 16 27  1  0     0  0
 17 13  2  0     0  0
 18 17  1  0     0  0
 19  6  1  0     0  0
 20 28  1  1     0  0
 21  5  1  0     0  0
 10 22  1  6     0  0
 23 10  1  0     0  0
 24 25  1  0     0  0
 25  8  1  0     0  0
 26 29  1  0     0  0
 27 20  1  0     0  0
 28 32  1  0     0  0
 29 21  2  0     0  0
 30  3  2  0     0  0
 23 31  1  1     0  0
 32 12  1  0     0  0
 33 31  1  0     0  0
 34 12  2  0     0  0
 35 15  2  0     0  0
 36 12  1  0     0  0
 37 15  1  0     0  0
 38 15  1  0     0  0
 39 18  1  0     0  0
 40 19  1  0     0  0
 27 41  1  6     0  0
  9  6  1  0     0  0
 24 23  1  0     0  0
 26 19  2  0     0  0
 16  7  1  0     0  0
 18  4  2  0     0  0
M  END
>  <prID>
312

>  <IDDB>
88133

>  <pIC50_HIV_Integrase>
4.602059991

>  <Q>
-11.81418617

>  <Activity_Integrase>
Inactive_Integrase

NA
NA
NA
NA
$$$$

  Accelrys05311914342D 1   1.00000     0.00000     0

 12 12  0     0  0            999 V2000
   -0.2042    1.0875    0.0000 C   0  0  0  0  0  0           0  0  0
   -0.2000    0.2833    0.0000 C   0  0  0  0  0  0           0  0  0
    0.5000   -0.1167    0.0000 C   0  0  0  0  0  0           0  0  0
    0.5000   -0.9250    0.0000 C   0  0  0  0  0  0           0  0  0
   -0.2000   -1.3292    0.0000 C   0  0  0  0  0  0           0  0  0
   -0.8625    1.7042    0.0000 O   0  0  0  0  0  0           0  0  0
   -0.8917   -0.1167    0.0000 C   0  0  0  0  0  0           0  0  0
    0.4875    1.5000    0.0000 N   0  0  0  0  0  0           0  0  0
   -0.8917   -0.9250    0.0000 C   0  0  0  0  0  0           0  0  0
    1.1958   -1.3250    0.0000 O   0  0  0  0  0  0           0  0  0
   -0.2042   -2.1333    0.0000 O   0  0  0  0  0  0           0  0  0
    0.7583    2.3208    0.0000 O   0  0  0  0  0  0           0  0  0
  2  1  1  0     0  0
  3  2  2  0     0  0
  4  3  1  0     0  0
  5  9  1  0     0  0
  6  1  2  0     0  0
  7  2  1  0     0  0
  8  1  1  0     0  0
  9  7  2  0     0  0
 10  4  1  0     0  0
 11  5  1  0     0  0
 12  8  1  0     0  0
  5  4  2  0     0  0
M  END
>  <prID>
313

>  <IDDB>
88319

>  <pIC50_HIV_Integrase>
3.754487332

>  <Q>
-2.180518518

>  <Activity_Integrase>
Inactive_Integrase

NA
NA
NA
NA
$$$$

  Accelrys05311914342D 1   1.00000     0.00000     0

 41 45  0     0  0            999 V2000
    2.3949   -2.9834    0.0000 C   0  0  0  0  0  0           0  0  0
    3.1037   -4.2167    0.0000 N   0  0  3  0  0  0           0  0  0
    3.8189   -3.8084    0.0000 C   0  0  0  0  0  0           0  0  0
    3.8189   -2.9834    0.0000 N   0  0  0  0  0  0           0  0  0
    3.1069   -2.5667    0.0000 C   0  0  0  0  0  0           0  0  0
    3.0991   -1.7417    0.0000 N   0  0  0  0  0  0           0  0  0
    4.5282   -4.2209    0.0000 O   0  0  0  0  0  0           0  0  0
    2.3949   -3.8084    0.0000 C   0  0  0  0  0  0           0  0  0
   -0.7954   -4.6625    0.0000 O   0  0  0  0  0  0           0  0  0
    0.8712   -6.0418    0.0000 C   0  0  1  0  0  0           0  0  0
    1.6962   -6.0418    0.0000 C   0  0  0  0  0  0           0  0  0
    1.9530   -5.2576    0.0000 C   0  0  1  0  0  0           0  0  0
    1.2837   -4.7709    0.0000 O   0  0  0  0  0  0           0  0  0
    0.6187   -5.2576    0.0000 C   0  0  2  0  0  0           0  0  0
    0.0296   -4.6667    0.0000 C   0  0  0  0  0  0           0  0  0
    0.0412   -3.8334    0.0000 O   0  0  0  0  0  0           0  0  0
   -0.7875   -3.8333    0.0000 P   0  0  3  0  0  0           0  0  0
   -1.6125   -3.8333    0.0000 O   0  0  0  0  0  0           0  0  0
   -0.7917   -3.0083    0.0000 O   0  0  0  0  0  0           0  0  0
   -1.8671   -1.0459    0.0000 O   0  0  0  0  0  0           0  0  0
   -0.2005   -2.4252    0.0000 C   0  0  1  0  0  0           0  0  0
    0.6245   -2.4252    0.0000 C   0  0  0  0  0  0           0  0  0
    0.8813   -1.6410    0.0000 C   0  0  1  0  0  0           0  0  0
    0.2120   -1.1543    0.0000 O   0  0  0  0  0  0           0  0  0
   -0.4530   -1.6410    0.0000 C   0  0  2  0  0  0           0  0  0
   -1.0421   -1.0501    0.0000 C   0  0  0  0  0  0           0  0  0
    2.3227   -0.5417    0.0000 C   0  0  0  0  0  0           0  0  0
    1.5359   -0.7899    0.0000 N   0  0  3  0  0  0           0  0  0
    1.0551   -0.1193    0.0000 C   0  0  0  0  0  0           0  0  0
    1.5470    0.5462    0.0000 N   0  0  0  0  0  0           0  0  0
    2.3277    0.2820    0.0000 C   0  0  0  0  0  0           0  0  0
    3.7467    0.2833    0.0000 N   0  0  0  0  0  0           0  0  0
    3.7467   -0.5417    0.0000 C   0  0  0  0  0  0           0  0  0
    3.0347   -0.9501    0.0000 N   0  0  0  0  0  0           0  0  0
    3.0347    0.6999    0.0000 C   0  0  0  0  0  0           0  0  0
    3.0425    1.5249    0.0000 N   0  0  0  0  0  0           0  0  0
   -2.6958   -1.0458    0.0000 P   0  0  3  0  0  0           0  0  0
   -3.5208   -1.0458    0.0000 O   0  0  0  0  0  0           0  0  0
   -2.7000   -0.2208    0.0000 O   0  0  0  0  0  0           0  0  0
   -2.7000   -1.8708    0.0000 O   0  0  0  0  0  0           0  0  0
    0.3083   -6.7417    0.0000 O   0  0  0  0  0  0           0  0  0
  8  2  1  0     0  0
  2  3  1  0     0  0
  3  4  1  0     0  0
  4  5  2  0     0  0
 15  9  1  0     0  0
 12  2  1  1     0  0
 26 20  1  0     0  0
 25 21  1  0     0  0
 21 22  1  0     0  0
 22 23  1  0     0  0
 23 24  1  0     0  0
 24 25  1  0     0  0
 25 26  1  1     0  0
 27 28  1  0     0  0
 14 10  1  0     0  0
 10 11  1  0     0  0
 11 12  1  0     0  0
 12 13  1  0     0  0
 13 14  1  0     0  0
 28 29  1  0     0  0
 29 30  2  0     0  0
 30 31  1  0     0  0
 31 27  2  0     0  0
 32 33  1  0     0  0
 14 15  1  1     0  0
  5  6  1  0     0  0
  3  7  2  0     0  0
 16 17  1  0     0  0
 32 35  2  0     0  0
 33 34  2  0     0  0
 34 27  1  0     0  0
 31 35  1  0     0  0
 35 36  1  0     0  0
 23 28  1  1     0  0
 17 18  2  0     0  0
 20 37  1  0     0  0
  1  8  2  0     0  0
 37 38  1  0     0  0
 17 19  1  0     0  0
 37 39  1  0     0  0
 17  9  1  0     0  0
 37 40  2  0     0  0
 21 19  1  6     0  0
  1  5  1  0     0  0
 10 41  1  6     0  0
M  END
>  <prID>
314

>  <IDDB>
88397

>  <pIC50_HIV_Integrase>
5.522878745

>  <Q>
-11.96449138

>  <Activity_Integrase>
Inactive_Integrase

NA
NA
NA
NA
$$$$

  Accelrys05311914342D 1   1.00000     0.00000     0

 26 28  0     0  0            999 V2000
    9.1390   -5.9054    0.0000 C   0  0  0  0  0  0           0  0  0
    9.1390   -7.0870    0.0000 C   0  0  0  0  0  0           0  0  0
   10.1582   -7.6765    0.0000 C   0  0  0  0  0  0           0  0  0
   11.1812   -7.0862    0.0000 C   0  0  0  0  0  0           0  0  0
   11.1812   -5.9002    0.0000 C   0  0  0  0  0  0           0  0  0
   10.1556   -5.3159    0.0000 C   0  0  0  0  0  0           0  0  0
    6.0865   -5.3281    0.0000 C   0  0  0  0  0  0           0  0  0
    7.1040   -5.9114    0.0000 C   0  0  0  0  0  0           0  0  0
    8.1215   -5.3223    0.0000 C   0  0  0  0  0  0           0  0  0
    4.0442   -4.1473    0.0000 C   0  0  0  0  0  0           0  0  0
    4.0442   -5.3289    0.0000 C   0  0  0  0  0  0           0  0  0
    5.0634   -5.9185    0.0000 N   0  0  0  0  0  0           0  0  0
    6.0865   -4.1421    0.0000 C   0  0  0  0  0  0           0  0  0
    5.0608   -3.5579    0.0000 C   0  0  0  0  0  0           0  0  0
    2.0016   -4.1533    0.0000 C   0  0  0  0  0  0           0  0  0
    2.0016   -5.3349    0.0000 C   0  0  0  0  0  0           0  0  0
    3.0224   -5.9244    0.0000 C   0  0  0  0  0  0           0  0  0
    3.0198   -3.5638    0.0000 C   0  0  0  0  0  0           0  0  0
    0.9758   -5.9147    0.0000 C   0  0  0  0  0  0           0  0  0
   -0.0476   -5.3256    0.0000 O   0  0  0  0  0  0           0  0  0
    0.9758   -7.0928    0.0000 O   0  0  0  0  0  0           0  0  0
    3.0224   -7.0987    0.0000 O   0  0  0  0  0  0           0  0  0
   10.1582   -8.8541    0.0000 O   0  0  0  0  0  0           0  0  0
   12.1982   -7.6699    0.0000 O   0  0  0  0  0  0           0  0  0
   12.1922   -5.3017    0.0000 O   0  0  0  0  0  0           0  0  0
   13.2097   -5.8908    0.0000 C   0  0  0  0  0  0           0  0  0
  7 13  1  0     0  0
  1  2  2  0     0  0
 13 14  2  0     0  0
 14 10  1  0     0  0
  3  4  2  0     0  0
  7  8  1  0     0  0
 15 16  1  0     0  0
 16 17  2  0     0  0
 17 11  1  0     0  0
  8  9  2  0     0  0
 10 18  1  0     0  0
 18 15  2  0     0  0
  9  1  1  0     0  0
 16 19  1  0     0  0
  4  5  1  0     0  0
 19 20  1  0     0  0
  2  3  1  0     0  0
 19 21  2  0     0  0
 10 11  2  0     0  0
 17 22  1  0     0  0
  5  6  2  0     0  0
  3 23  1  0     0  0
 11 12  1  0     0  0
  4 24  1  0     0  0
 12  7  2  0     0  0
  5 25  1  0     0  0
  6  1  1  0     0  0
 25 26  1  0     0  0
M  END
>  <prID>
315

>  <IDDB>
89112

>  <pIC50_HIV_Integrase>
5.769551079

>  <Q>
-1.968614666

>  <Activity_Integrase>
Inactive_Integrase

NA
NA
NA
NA
$$$$

  Accelrys05311914342D 1   1.00000     0.00000     0

 78 86  0     0  0            999 V2000
    3.2826   -0.9079    0.0000 O   0  0  0  0  0  0           0  0  0
    2.7115   -1.2101    0.0000 C   0  0  0  0  0  0           0  0  0
    1.3435   -2.0281    0.0000 C   0  0  0  0  0  0           0  0  0
    2.7233   -2.0054    0.0000 C   0  0  0  0  0  0           0  0  0
    2.0156   -0.8238    0.0000 C   0  0  0  0  0  0           0  0  0
    1.3296   -1.2365    0.0000 C   0  0  0  0  0  0           0  0  0
    2.0450   -2.4128    0.0000 C   0  0  0  0  0  0           0  0  0
    0.6250   -2.4333    0.0000 C   0  0  0  0  0  0           0  0  0
    1.3125   -3.9500    0.0000 N   0  0  3  0  0  0           0  0  0
    1.9917   -3.5542    0.0000 C   0  0  0  0  0  0           0  0  0
    3.3667   -3.5542    0.0000 N   0  0  0  0  0  0           0  0  0
    5.4250   -3.9500    0.0000 N   0  0  0  0  0  0           0  0  0
    7.4666   -3.6833    0.0000 N   0  0  0  0  0  0           0  0  0
    2.6833   -3.9500    0.0000 C   0  0  2  0  0  0           0  0  0
    4.0542   -3.9500    0.0000 C   0  0  0  0  0  0           0  0  0
    6.1084   -3.5542    0.0000 C   0  0  0  0  0  0           0  0  0
    4.7375   -3.5542    0.0000 C   0  0  1  0  0  0           0  0  0
    6.8000   -3.9500    0.0000 C   0  0  1  0  0  0           0  0  0
    8.1709   -3.9500    0.0000 C   0  0  0  0  0  0           0  0  0
    5.4291   -1.3917    0.0000 C   0  0  0  0  0  0           0  0  0
    0.6291   -3.5542    0.0000 C   0  0  2  0  0  0           0  0  0
   10.2250   -3.5542    0.0000 C   0  0  0  0  0  0           0  0  0
    4.0584   -1.4042    0.0000 C   0  0  0  0  0  0           0  0  0
    4.7500   -2.5792    0.0000 C   0  0  0  0  0  0           0  0  0
    2.6791   -4.7375    0.0000 C   0  0  0  0  0  0           0  0  0
    6.7958   -4.7208    0.0000 C   0  0  0  0  0  0           0  0  0
   11.6534   -3.6795    0.0000 C   0  0  0  0  0  0           0  0  0
    4.7458   -0.9959    0.0000 C   0  0  0  0  0  0           0  0  0
   10.9666   -4.0291    0.0000 C   0  0  0  0  0  0           0  0  0
    9.5333   -3.9500    0.0000 N   0  0  0  0  0  0           0  0  0
    5.4291   -2.1833    0.0000 C   0  0  0  0  0  0           0  0  0
    8.8459   -3.5542    0.0000 C   0  0  2  0  0  0           0  0  0
    6.7834   -6.3000    0.0000 C   0  0  0  0  0  0           0  0  0
   13.0349   -2.8992    0.0000 C   0  0  0  0  0  0           0  0  0
    2.6625   -6.3292    0.0000 C   0  0  0  0  0  0           0  0  0
    6.1000   -5.9000    0.0000 C   0  0  0  0  0  0           0  0  0
    7.4708   -5.9042    0.0000 C   0  0  0  0  0  0           0  0  0
    1.9875   -5.9292    0.0000 C   0  0  0  0  0  0           0  0  0
    3.3541   -5.9334    0.0000 C   0  0  0  0  0  0           0  0  0
   13.0268   -3.6890    0.0000 C   0  0  0  0  0  0           0  0  0
   12.3537   -2.4914    0.0000 C   0  0  0  0  0  0           0  0  0
   -0.0583   -3.9500    0.0000 C   0  0  0  0  0  0           0  0  0
    4.0625   -2.1875    0.0000 C   0  0  0  0  0  0           0  0  0
    1.9917   -5.1375    0.0000 C   0  0  0  0  0  0           0  0  0
    3.3625   -5.1416    0.0000 C   0  0  0  0  0  0           0  0  0
    6.1000   -5.1125    0.0000 C   0  0  0  0  0  0           0  0  0
    7.4708   -5.1167    0.0000 C   0  0  0  0  0  0           0  0  0
   12.3361   -4.0791    0.0000 C   0  0  0  0  0  0           0  0  0
   11.6574   -2.8890    0.0000 C   0  0  0  0  0  0           0  0  0
    1.9917   -2.7583    0.0000 O   0  0  0  0  0  0           0  0  0
    4.0500   -4.7375    0.0000 O   0  0  0  0  0  0           0  0  0
    6.1084   -2.7583    0.0000 O   0  0  0  0  0  0           0  0  0
   10.2250   -2.7583    0.0000 O   0  0  0  0  0  0           0  0  0
    8.1625   -4.7375    0.0000 O   0  0  0  0  0  0           0  0  0
   10.9625   -4.9625    0.0000 O   0  0  0  0  0  0           0  0  0
   -0.0625   -4.7375    0.0000 O   0  0  0  0  0  0           0  0  0
    5.4041   -6.2958    0.0000 Cl  0  0  0  0  0  0           0  0  0
   13.7121   -4.0975    0.0000 Cl  0  0  0  0  0  0           0  0  0
    1.2916   -6.3208    0.0000 Cl  0  0  0  0  0  0           0  0  0
    4.0500   -6.3292    0.0000 Cl  0  0  0  0  0  0           0  0  0
   12.3495   -1.6995    0.0000 Cl  0  0  0  0  0  0           0  0  0
    8.1583   -6.2958    0.0000 Cl  0  0  0  0  0  0           0  0  0
    1.3083   -4.7375    0.0000 C   0  0  0  0  0  0           0  0  0
    6.7750   -7.0959    0.0000 O   0  0  0  0  0  0           0  0  0
    2.6584   -7.1250    0.0000 O   0  0  0  0  0  0           0  0  0
   13.7263   -2.5050    0.0000 O   0  0  0  0  0  0           0  0  0
    4.7375   -0.2000    0.0000 O   0  0  0  0  0  0           0  0  0
   -0.7709   -3.5375    0.0000 O   0  0  0  0  0  0           0  0  0
    8.0187   -2.7299    0.0000 C   0  0  0  0  0  0           0  0  0
    6.9631   -0.6385    0.0000 C   0  0  0  0  0  0           0  0  0
    6.8301   -2.7827    0.0000 N   0  0  0  0  0  0           0  0  0
    7.0360   -2.0102    0.0000 C   0  0  0  0  0  0           0  0  0
    7.8340   -1.9747    0.0000 C   0  0  0  0  0  0           0  0  0
    7.5052   -3.2178    0.0000 C   0  0  0  0  0  0           0  0  0
    6.6065   -1.3521    0.0000 C   0  0  0  0  0  0           0  0  0
    8.1955   -1.2639    0.0000 C   0  0  0  0  0  0           0  0  0
    7.7597   -0.6004    0.0000 C   0  0  0  0  0  0           0  0  0
    8.8417   -2.7292    0.0000 C   0  0  0  0  0  0           0  0  0
 11 14  1  0     0  0
 12 17  1  0     0  0
 13 18  1  0     0  0
 14 10  1  0     0  0
 15 11  1  0     0  0
 16 12  1  0     0  0
 17 15  1  0     0  0
 18 16  1  0     0  0
 19 13  1  0     0  0
 20 31  1  0     0  0
 21  9  1  0     0  0
 22 30  1  0     0  0
 17 24  1  1     0  0
 14 25  1  6     0  0
 18 26  1  6     0  0
 27 29  1  0     0  0
 28 23  1  0     0  0
 29 22  1  0     0  0
 30 32  1  0     0  0
 31 24  2  0     0  0
 32 19  1  0     0  0
 33 37  1  0     0  0
 34 41  1  0     0  0
 35 39  1  0     0  0
 36 46  1  0     0  0
 37 47  2  0     0  0
 38 44  1  0     0  0
 39 45  2  0     0  0
 40 48  1  0     0  0
 41 49  2  0     0  0
 42 21  1  0     0  0
 43 24  1  0     0  0
 44 25  2  0     0  0
 45 25  1  0     0  0
 46 26  2  0     0  0
 47 26  1  0     0  0
 48 27  2  0     0  0
 49 27  1  0     0  0
 50 10  2  0     0  0
 51 15  2  0     0  0
 52 16  2  0     0  0
 21  8  1  6     0  0
 53 22  2  0     0  0
 54 19  2  0     0  0
 55 29  2  0     0  0
 56 42  2  0     0  0
 57 36  1  0     0  0
 58 40  1  0     0  0
 59 38  1  0     0  0
 60 39  1  0     0  0
 61 41  1  0     0  0
 62 37  1  0     0  0
 63  9  1  0     0  0
 64 33  1  0     0  0
 65 35  1  0     0  0
 66 34  1  0     0  0
 67 28  1  0     0  0
 68 42  1  0     0  0
 35 38  2  0     0  0
 43 23  2  0     0  0
 28 20  2  0     0  0
 33 36  2  0     0  0
 34 40  2  0     0  0
 32 78  1  1     0  0
  4  2  2  0     0  0
  3  8  1  0     0  0
  1  2  1  0     0  0
  2  5  1  0     0  0
  4  7  1  0     0  0
  5  6  2  0     0  0
  6  3  1  0     0  0
  7  3  2  0     0  0
 71 72  1  0     0  0
 72 75  1  0     0  0
 73 76  1  0     0  0
 74 71  1  0     0  0
 75 70  2  0     0  0
 76 77  2  0     0  0
 77 70  1  0     0  0
 69 73  1  0     0  0
 72 73  2  0     0  0
 74 69  2  0     0  0
 10  9  1  0     0  0
 69 78  1  0     0  0
 20 75  1  0     0  0
 23  1  1  0     0  0
M  END
>  <prID>
316

>  <IDDB>
89546

>  <pIC50_HIV_Integrase>
5.809894379

>  <Q>
-11.80790711

>  <Activity_Integrase>
Inactive_Integrase

NA
NA
NA
NA
$$$$

  Accelrys05311914342D 1   1.00000     0.00000     0

 65 72  0     0  0            999 V2000
    3.2826   -0.9079    0.0000 O   0  0  0  0  0  0           0  0  0
    2.7115   -1.2101    0.0000 C   0  0  0  0  0  0           0  0  0
    1.3435   -2.0281    0.0000 C   0  0  0  0  0  0           0  0  0
    2.7233   -2.0054    0.0000 C   0  0  0  0  0  0           0  0  0
    2.0156   -0.8238    0.0000 C   0  0  0  0  0  0           0  0  0
    1.3296   -1.2365    0.0000 C   0  0  0  0  0  0           0  0  0
    2.0450   -2.4128    0.0000 C   0  0  0  0  0  0           0  0  0
    0.6250   -2.4333    0.0000 C   0  0  0  0  0  0           0  0  0
    1.3125   -3.9500    0.0000 N   0  0  3  0  0  0           0  0  0
    1.9917   -3.5542    0.0000 C   0  0  0  0  0  0           0  0  0
    3.3667   -3.5542    0.0000 N   0  0  0  0  0  0           0  0  0
    5.4250   -3.9500    0.0000 N   0  0  0  0  0  0           0  0  0
    7.4666   -3.6833    0.0000 N   0  0  0  0  0  0           0  0  0
    2.6833   -3.9500    0.0000 C   0  0  2  0  0  0           0  0  0
    4.0542   -3.9500    0.0000 C   0  0  0  0  0  0           0  0  0
    6.1084   -3.5542    0.0000 C   0  0  0  0  0  0           0  0  0
    4.7375   -3.5542    0.0000 C   0  0  1  0  0  0           0  0  0
    6.8000   -3.9500    0.0000 C   0  0  1  0  0  0           0  0  0
    8.1709   -3.9500    0.0000 C   0  0  0  0  0  0           0  0  0
    5.4291   -1.3917    0.0000 C   0  0  0  0  0  0           0  0  0
    0.6291   -3.5542    0.0000 C   0  0  2  0  0  0           0  0  0
    4.0584   -1.4042    0.0000 C   0  0  0  0  0  0           0  0  0
    4.7500   -2.5792    0.0000 C   0  0  0  0  0  0           0  0  0
    2.6791   -4.7375    0.0000 C   0  0  0  0  0  0           0  0  0
    6.7958   -4.7208    0.0000 C   0  0  0  0  0  0           0  0  0
    4.7458   -0.9959    0.0000 C   0  0  0  0  0  0           0  0  0
    9.5333   -3.9500    0.0000 N   0  0  0  0  0  0           0  0  0
    5.4291   -2.1833    0.0000 C   0  0  0  0  0  0           0  0  0
    8.8459   -3.5542    0.0000 C   0  0  2  0  0  0           0  0  0
    6.7834   -6.3000    0.0000 C   0  0  0  0  0  0           0  0  0
    2.6625   -6.3292    0.0000 C   0  0  0  0  0  0           0  0  0
    6.1000   -5.9000    0.0000 C   0  0  0  0  0  0           0  0  0
    7.4708   -5.9042    0.0000 C   0  0  0  0  0  0           0  0  0
    1.9875   -5.9292    0.0000 C   0  0  0  0  0  0           0  0  0
    3.3541   -5.9334    0.0000 C   0  0  0  0  0  0           0  0  0
   -0.0583   -3.9500    0.0000 C   0  0  0  0  0  0           0  0  0
    4.0625   -2.1875    0.0000 C   0  0  0  0  0  0           0  0  0
    1.9917   -5.1375    0.0000 C   0  0  0  0  0  0           0  0  0
    3.3625   -5.1416    0.0000 C   0  0  0  0  0  0           0  0  0
    6.1000   -5.1125    0.0000 C   0  0  0  0  0  0           0  0  0
    7.4708   -5.1167    0.0000 C   0  0  0  0  0  0           0  0  0
    1.9917   -2.7583    0.0000 O   0  0  0  0  0  0           0  0  0
    4.0500   -4.7375    0.0000 O   0  0  0  0  0  0           0  0  0
    6.1084   -2.7583    0.0000 O   0  0  0  0  0  0           0  0  0
    8.1625   -4.7375    0.0000 O   0  0  0  0  0  0           0  0  0
   -0.0625   -4.7375    0.0000 O   0  0  0  0  0  0           0  0  0
    5.4041   -6.2958    0.0000 Cl  0  0  0  0  0  0           0  0  0
    1.2916   -6.3208    0.0000 Cl  0  0  0  0  0  0           0  0  0
    4.0500   -6.3292    0.0000 Cl  0  0  0  0  0  0           0  0  0
    8.1583   -6.2958    0.0000 Cl  0  0  0  0  0  0           0  0  0
    1.3083   -4.7375    0.0000 C   0  0  0  0  0  0           0  0  0
    6.7750   -7.0959    0.0000 O   0  0  0  0  0  0           0  0  0
    2.6584   -7.1250    0.0000 O   0  0  0  0  0  0           0  0  0
    4.7375   -0.2000    0.0000 O   0  0  0  0  0  0           0  0  0
   -0.7709   -3.5375    0.0000 O   0  0  0  0  0  0           0  0  0
    8.0187   -2.7299    0.0000 C   0  0  0  0  0  0           0  0  0
    6.9631   -0.6385    0.0000 C   0  0  0  0  0  0           0  0  0
    6.8301   -2.7827    0.0000 N   0  0  0  0  0  0           0  0  0
    7.0360   -2.0102    0.0000 C   0  0  0  0  0  0           0  0  0
    7.8340   -1.9747    0.0000 C   0  0  0  0  0  0           0  0  0
    7.5052   -3.2178    0.0000 C   0  0  0  0  0  0           0  0  0
    6.6065   -1.3521    0.0000 C   0  0  0  0  0  0           0  0  0
    8.1955   -1.2639    0.0000 C   0  0  0  0  0  0           0  0  0
    7.7597   -0.6004    0.0000 C   0  0  0  0  0  0           0  0  0
    8.8417   -2.7292    0.0000 C   0  0  0  0  0  0           0  0  0
 11 14  1  0     0  0
 12 17  1  0     0  0
 13 18  1  0     0  0
 14 10  1  0     0  0
 15 11  1  0     0  0
 16 12  1  0     0  0
 17 15  1  0     0  0
 18 16  1  0     0  0
 19 13  1  0     0  0
 20 28  1  0     0  0
 21  9  1  0     0  0
 17 23  1  1     0  0
 14 24  1  6     0  0
 18 25  1  6     0  0
 26 22  1  0     0  0
 27 29  1  0     0  0
 28 23  2  0     0  0
 29 19  1  0     0  0
 30 33  1  0     0  0
 31 35  1  0     0  0
 32 40  1  0     0  0
 33 41  2  0     0  0
 34 38  1  0     0  0
 35 39  2  0     0  0
 36 21  1  0     0  0
 37 23  1  0     0  0
 38 24  2  0     0  0
 39 24  1  0     0  0
 40 25  2  0     0  0
 41 25  1  0     0  0
 42 10  2  0     0  0
 43 15  2  0     0  0
 44 16  2  0     0  0
 21  8  1  6     0  0
 45 19  2  0     0  0
 46 36  2  0     0  0
 47 32  1  0     0  0
 48 34  1  0     0  0
 49 35  1  0     0  0
 50 33  1  0     0  0
 51  9  1  0     0  0
 52 30  1  0     0  0
 53 31  1  0     0  0
 54 26  1  0     0  0
 55 36  1  0     0  0
 31 34  2  0     0  0
 37 22  2  0     0  0
 26 20  2  0     0  0
 30 32  2  0     0  0
 29 65  1  1     0  0
  4  7  1  0     0  0
  5  6  2  0     0  0
  6  3  1  0     0  0
  7  3  2  0     0  0
  4  2  2  0     0  0
  3  8  1  0     0  0
  1  2  1  0     0  0
  2  5  1  0     0  0
 58 59  1  0     0  0
 59 62  1  0     0  0
 60 63  1  0     0  0
 61 58  1  0     0  0
 62 57  2  0     0  0
 63 64  2  0     0  0
 64 57  1  0     0  0
 56 60  1  0     0  0
 59 60  2  0     0  0
 61 56  2  0     0  0
 10  9  1  0     0  0
 56 65  1  0     0  0
 20 62  1  0     0  0
 22  1  1  0     0  0
M  END
>  <prID>
317

>  <IDDB>
89547

>  <pIC50_HIV_Integrase>
5.3723637475

>  <Q>
-10.23350534

>  <Activity_Integrase>
Inactive_Integrase

NA
NA
NA
NA
$$$$

  Accelrys05311914342D 1   1.00000     0.00000     0

 26 28  0     0  0            999 V2000
   -1.0750    0.0833    0.0000 C   0  0  0  0  0  0           0  0  0
    0.3958   -0.2333    0.0000 C   0  0  0  0  0  0           0  0  0
    1.7000   -0.8375    0.0000 C   0  0  0  0  0  0           0  0  0
   -1.0792    0.9125    0.0000 C   0  0  0  0  0  0           0  0  0
    0.7458    0.5208    0.0000 C   0  0  0  0  0  0           0  0  0
   -0.4292    1.4417    0.0000 C   0  0  0  0  0  0           0  0  0
    0.3792    1.2625    0.0000 O   0  0  0  0  0  0           0  0  0
   -0.4167   -0.4292    0.0000 O   0  0  0  0  0  0           0  0  0
    2.0458   -0.0833    0.0000 C   0  0  0  0  0  0           0  0  0
    0.8708   -0.9125    0.0000 C   0  0  0  0  0  0           0  0  0
    1.5708    0.5917    0.0000 C   0  0  0  0  0  0           0  0  0
   -1.7917   -0.3292    0.0000 C   0  0  0  0  0  0           0  0  0
   -1.7958    1.3208    0.0000 C   0  0  0  0  0  0           0  0  0
    2.1042   -1.5542    0.0000 C   0  0  0  0  0  0           0  0  0
   -2.5042    0.0833    0.0000 C   0  0  0  0  0  0           0  0  0
   -2.5042    0.9083    0.0000 C   0  0  0  0  0  0           0  0  0
   -0.4375    2.2667    0.0000 O   0  0  0  0  0  0           0  0  0
   -1.8000   -1.1542    0.0000 C   0  0  0  0  0  0           0  0  0
    2.9000   -1.3375    0.0000 O   0  0  0  0  0  0           0  0  0
    2.8708   -0.0792    0.0000 O   0  0  0  0  0  0           0  0  0
   -1.0875   -1.5625    0.0000 O   0  0  0  0  0  0           0  0  0
    1.8875   -2.3500    0.0000 O   0  0  0  0  0  0           0  0  0
   -3.2250   -0.3208    0.0000 O   0  0  0  0  0  0           0  0  0
    0.4500   -1.6208    0.0000 C   0  0  0  0  0  0           0  0  0
    1.9750    1.3083    0.0000 C   0  0  0  0  0  0           0  0  0
   -1.8000    2.1500    0.0000 C   0  0  0  0  0  0           0  0  0
  2  8  1  0     0  0
  3 10  2  0     0  0
  4  1  1  0     0  0
  5  2  2  0     0  0
  6  4  1  0     0  0
  7  6  1  0     0  0
  8  1  1  0     0  0
  9 11  2  0     0  0
 10  2  1  0     0  0
 11  5  1  0     0  0
 12  1  2  0     0  0
 13  4  2  0     0  0
 14  3  1  0     0  0
 15 12  1  0     0  0
 16 15  2  0     0  0
 17  6  2  0     0  0
 18 12  1  0     0  0
 19 14  2  0     0  0
 20  9  1  0     0  0
 21 18  2  0     0  0
 22 14  1  0     0  0
 23 15  1  0     0  0
 24 10  1  0     0  0
 25 11  1  0     0  0
 26 13  1  0     0  0
 16 13  1  0     0  0
  5  7  1  0     0  0
  9  3  1  0     0  0
M  END
>  <prID>
318

>  <IDDB>
92374

>  <pIC50_HIV_Integrase>
5.187086643

>  <Q>
-2.806794437

>  <Activity_Integrase>
Inactive_Integrase

NA
NA
NA
NA
$$$$

  Accelrys05311914342D 1   1.00000     0.00000     0

 27 29  0     0  0            999 V2000
   -1.1708    0.1875    0.0000 C   0  0  0  0  0  0           0  0  0
    0.3000   -0.1333    0.0000 C   0  0  0  0  0  0           0  0  0
    1.6000   -0.7375    0.0000 C   0  0  0  0  0  0           0  0  0
   -1.1750    1.0167    0.0000 C   0  0  0  0  0  0           0  0  0
    0.6500    0.6208    0.0000 C   0  0  0  0  0  0           0  0  0
   -0.5250    1.5417    0.0000 C   0  0  0  0  0  0           0  0  0
    0.2833    1.3667    0.0000 O   0  0  0  0  0  0           0  0  0
   -0.5125   -0.3250    0.0000 O   0  0  0  0  0  0           0  0  0
    1.9500    0.0208    0.0000 C   0  0  0  0  0  0           0  0  0
    0.7750   -0.8125    0.0000 C   0  0  0  0  0  0           0  0  0
    1.4750    0.6958    0.0000 C   0  0  0  0  0  0           0  0  0
   -1.8875   -0.2292    0.0000 C   0  0  0  0  0  0           0  0  0
   -1.8875    1.4250    0.0000 C   0  0  0  0  0  0           0  0  0
   -2.6000    0.1833    0.0000 C   0  0  0  0  0  0           0  0  0
    2.0083   -1.4500    0.0000 C   0  0  0  0  0  0           0  0  0
   -2.6000    1.0125    0.0000 C   0  0  0  0  0  0           0  0  0
   -0.5333    2.3708    0.0000 O   0  0  0  0  0  0           0  0  0
   -1.8958   -1.0500    0.0000 C   0  0  0  0  0  0           0  0  0
    2.8042   -1.2333    0.0000 O   0  0  0  0  0  0           0  0  0
    2.7750    0.0208    0.0000 O   0  0  0  0  0  0           0  0  0
   -1.1833   -1.4625    0.0000 O   0  0  0  0  0  0           0  0  0
   -3.3208   -0.2208    0.0000 O   0  0  0  0  0  0           0  0  0
    1.7917   -2.2458    0.0000 O   0  0  0  0  0  0           0  0  0
    0.3542   -1.5208    0.0000 C   0  0  0  0  0  0           0  0  0
    1.8792    1.4125    0.0000 C   0  0  0  0  0  0           0  0  0
   -1.8958    2.2542    0.0000 C   0  0  0  0  0  0           0  0  0
    2.5042   -2.6583    0.0000 C   0  0  0  0  0  0           0  0  0
  2  8  1  0     0  0
  3 10  2  0     0  0
  4  1  1  0     0  0
  5  2  2  0     0  0
  6  4  1  0     0  0
  7  6  1  0     0  0
  8  1  1  0     0  0
  9  3  1  0     0  0
 10  2  1  0     0  0
 11  5  1  0     0  0
 12  1  2  0     0  0
 13  4  2  0     0  0
 14 12  1  0     0  0
 15  3  1  0     0  0
 16 14  2  0     0  0
 17  6  2  0     0  0
 18 12  1  0     0  0
 19 15  2  0     0  0
 20  9  1  0     0  0
 21 18  2  0     0  0
 22 14  1  0     0  0
 23 15  1  0     0  0
 24 10  1  0     0  0
 25 11  1  0     0  0
 26 13  1  0     0  0
 27 23  1  0     0  0
 16 13  1  0     0  0
  7  5  1  0     0  0
  9 11  2  0     0  0
M  END
>  <prID>
319

>  <IDDB>
92375

>  <pIC50_HIV_Integrase>
5.356547324

>  <Q>
-2.185573145

>  <Activity_Integrase>
Inactive_Integrase

NA
NA
NA
NA
$$$$

  Accelrys05311914342D 1   1.00000     0.00000     0

 34 36  0     0  0            999 V2000
   -0.1875    0.0375    0.0000 C   0  0  0  0  0  0           0  0  0
   -2.0167   -0.3792    0.0000 C   0  0  0  0  0  0           0  0  0
   -0.5542   -0.7083    0.0000 C   0  0  0  0  0  0           0  0  0
    0.7500   -1.3417    0.0000 C   0  0  0  0  0  0           0  0  0
   -2.0167    0.4625    0.0000 C   0  0  0  0  0  0           0  0  0
    0.6417    0.1000    0.0000 C   0  0  0  0  0  0           0  0  0
   -1.3625    0.9750    0.0000 C   0  0  0  0  0  0           0  0  0
   -0.5542    0.7917    0.0000 O   0  0  0  0  0  0           0  0  0
    1.1083   -0.5917    0.0000 C   0  0  0  0  0  0           0  0  0
   -1.3625   -0.8958    0.0000 O   0  0  0  0  0  0           0  0  0
   -0.0833   -1.4042    0.0000 C   0  0  0  0  0  0           0  0  0
   -2.7250   -0.7958    0.0000 C   0  0  0  0  0  0           0  0  0
   -2.7292    0.8750    0.0000 C   0  0  0  0  0  0           0  0  0
    1.2250   -2.0417    0.0000 C   0  0  0  0  0  0           0  0  0
   -3.4542   -0.3792    0.0000 C   0  0  0  0  0  0           0  0  0
    1.0125    0.8625    0.0000 C   0  0  0  0  0  0           0  0  0
   -3.4542    0.4583    0.0000 C   0  0  0  0  0  0           0  0  0
    2.2083    1.6667    0.0000 C   0  0  0  0  0  0           0  0  0
    4.2833    1.4208    0.0000 C   0  0  0  0  0  0           0  0  0
    2.9792    1.8375    0.0000 C   0  0  0  0  0  0           0  0  0
    3.5125    1.2542    0.0000 C   0  0  0  0  0  0           0  0  0
   -1.5500    1.7958    0.0000 O   0  0  0  0  0  0           0  0  0
   -2.7333   -1.6208    0.0000 C   0  0  0  0  0  0           0  0  0
    1.8417    0.9208    0.0000 O   0  0  0  0  0  0           0  0  0
    2.0625   -1.9750    0.0000 O   0  0  0  0  0  0           0  0  0
    1.7375    2.3583    0.0000 O   0  0  0  0  0  0           0  0  0
    4.5208    2.1750    0.0000 O   0  0  0  0  0  0           0  0  0
    1.9417   -0.5333    0.0000 O   0  0  0  0  0  0           0  0  0
   -3.4500   -2.0417    0.0000 O   0  0  0  0  0  0           0  0  0
    0.8667   -2.7958    0.0000 O   0  0  0  0  0  0           0  0  0
   -4.1833   -0.7917    0.0000 O   0  0  0  0  0  0           0  0  0
   -0.4458   -2.1667    0.0000 C   0  0  0  0  0  0           0  0  0
    4.8167    0.8375    0.0000 O   0  0  0  0  0  0           0  0  0
   -2.7333    1.7083    0.0000 C   0  0  0  0  0  0           0  0  0
  2 10  1  0     0  0
  3  1  2  0     0  0
  4  9  1  0     0  0
  5  7  1  0     0  0
  6  1  1  0     0  0
  7  8  1  0     0  0
  8  1  1  0     0  0
  9  6  2  0     0  0
 10  3  1  0     0  0
 11  3  1  0     0  0
 12  2  2  0     0  0
 13  5  2  0     0  0
 14  4  1  0     0  0
 15 12  1  0     0  0
 16  6  1  0     0  0
 17 13  1  0     0  0
 18 24  1  0     0  0
 19 21  1  0     0  0
 20 18  1  0     0  0
 21 20  2  0     0  0
 22  7  2  0     0  0
 23 12  1  0     0  0
 24 16  1  0     0  0
 25 14  2  0     0  0
 26 18  2  0     0  0
 27 19  2  0     0  0
 28  9  1  0     0  0
 29 23  2  0     0  0
 30 14  1  0     0  0
 31 15  1  0     0  0
 32 11  1  0     0  0
 33 19  1  0     0  0
 34 13  1  0     0  0
  4 11  2  0     0  0
  5  2  1  0     0  0
 17 15  2  0     0  0
M  END
>  <prID>
320

>  <IDDB>
92376

>  <pIC50_HIV_Integrase>
5.337242168

>  <Q>
-3.883506241

>  <Activity_Integrase>
Inactive_Integrase

NA
NA
NA
NA
$$$$

  Accelrys05311914342D 1   1.00000     0.00000     0

 34 36  0     0  0            999 V2000
    0.3042    1.2417    0.0000 C   0  0  0  0  0  0           0  0  0
    2.7583   -0.6583    0.0000 C   0  0  0  0  0  0           0  0  0
   -0.2417    0.6250    0.0000 C   0  0  0  0  0  0           0  0  0
    1.3958   -0.2667    0.0000 C   0  0  0  0  0  0           0  0  0
    0.6250   -0.5917    0.0000 O   0  0  0  0  0  0           0  0  0
    1.9708   -0.8583    0.0000 C   0  0  0  0  0  0           0  0  0
   -0.1000   -0.1917    0.0000 C   0  0  0  0  0  0           0  0  0
    1.6167    0.5333    0.0000 C   0  0  0  0  0  0           0  0  0
    1.1208    1.1958    0.0000 O   0  0  0  0  0  0           0  0  0
    3.0000    0.1417    0.0000 C   0  0  0  0  0  0           0  0  0
   -1.0208    0.9083    0.0000 C   0  0  0  0  0  0           0  0  0
    2.4250    0.7375    0.0000 C   0  0  0  0  0  0           0  0  0
    3.3167   -1.2583    0.0000 C   0  0  0  0  0  0           0  0  0
   -0.7333   -0.7208    0.0000 C   0  0  0  0  0  0           0  0  0
   -0.0083    2.0208    0.0000 O   0  0  0  0  0  0           0  0  0
   -1.6542    0.3792    0.0000 C   0  0  0  0  0  0           0  0  0
   -1.1625    1.7333    0.0000 C   0  0  0  0  0  0           0  0  0
   -1.5042   -0.4333    0.0000 C   0  0  0  0  0  0           0  0  0
    4.1208   -1.0792    0.0000 O   0  0  0  0  0  0           0  0  0
   -1.9417    2.0208    0.0000 C   0  0  0  0  0  0           0  0  0
   -2.0667    2.8417    0.0000 O   0  0  0  0  0  0           0  0  0
    3.8125    0.3542    0.0000 O   0  0  0  0  0  0           0  0  0
    3.0750   -2.0417    0.0000 O   0  0  0  0  0  0           0  0  0
    1.7583   -1.6625    0.0000 C   0  0  0  0  0  0           0  0  0
   -2.1542   -0.9667    0.0000 O   0  0  0  0  0  0           0  0  0
   -2.5875    1.5042    0.0000 C   0  0  0  0  0  0           0  0  0
    0.9542   -1.8792    0.0000 C   0  0  0  0  0  0           0  0  0
   -3.3625    1.8000    0.0000 C   0  0  0  0  0  0           0  0  0
   -0.0625   -2.9000    0.0000 C   0  0  0  0  0  0           0  0  0
   -4.7750    1.5833    0.0000 C   0  0  0  0  0  0           0  0  0
   -4.0000    1.2833    0.0000 C   0  0  0  0  0  0           0  0  0
    0.7375   -2.6833    0.0000 C   0  0  0  0  0  0           0  0  0
   -0.2667   -3.7000    0.0000 C   0  0  0  0  0  0           0  0  0
   -5.4208    1.0625    0.0000 C   0  0  0  0  0  0           0  0  0
  2 10  2  0     0  0
  3  1  1  0     0  0
  4  8  1  0     0  0
  5  7  1  0     0  0
  6  4  2  0     0  0
  7  3  2  0     0  0
  8  9  1  0     0  0
  9  1  1  0     0  0
 10 12  1  0     0  0
 11  3  1  0     0  0
 12  8  2  0     0  0
 13  2  1  0     0  0
 14  7  1  0     0  0
 15  1  2  0     0  0
 16 11  2  0     0  0
 17 11  1  0     0  0
 18 16  1  0     0  0
 19 13  2  0     0  0
 20 17  1  0     0  0
 21 20  2  0     0  0
 22 10  1  0     0  0
 23 13  1  0     0  0
 24  6  1  0     0  0
 25 18  1  0     0  0
 26 20  1  0     0  0
 27 24  1  0     0  0
 28 26  1  0     0  0
 29 32  1  0     0  0
 30 31  1  0     0  0
 31 28  1  0     0  0
 32 27  1  0     0  0
 33 29  1  0     0  0
 34 30  1  0     0  0
  5  4  1  0     0  0
 18 14  2  0     0  0
  2  6  1  0     0  0
M  END
>  <prID>
321

>  <IDDB>
92377

>  <pIC50_HIV_Integrase>
4.510041521

>  <Q>
-5.185105974

>  <Activity_Integrase>
Inactive_Integrase

NA
NA
NA
NA
$$$$

  Accelrys05311914342D 1   1.00000     0.00000     0

 34 36  0     0  0            999 V2000
   -0.1542    0.5292    0.0000 C   0  0  0  0  0  0           0  0  0
    1.9250   -1.5333    0.0000 C   0  0  0  0  0  0           0  0  0
   -0.9000    0.1792    0.0000 C   0  0  0  0  0  0           0  0  0
    1.2083   -1.1208    0.0000 C   0  0  0  0  0  0           0  0  0
    0.4958   -1.5375    0.0000 C   0  0  0  0  0  0           0  0  0
   -0.9042   -0.6500    0.0000 C   0  0  0  0  0  0           0  0  0
   -1.5792    0.6458    0.0000 C   0  0  0  0  0  0           0  0  0
    1.9292   -2.3583    0.0000 C   0  0  0  0  0  0           0  0  0
   -0.2250   -1.1250    0.0000 O   0  0  0  0  0  0           0  0  0
   -0.0833    1.3542    0.0000 O   0  0  0  0  0  0           0  0  0
    0.5000   -2.3708    0.0000 C   0  0  0  0  0  0           0  0  0
    1.2167   -2.7750    0.0000 C   0  0  0  0  0  0           0  0  0
   -1.5125    1.4667    0.0000 C   0  0  0  0  0  0           0  0  0
    2.6375   -1.1125    0.0000 C   0  0  0  0  0  0           0  0  0
   -0.7625    1.8250    0.0000 C   0  0  0  0  0  0           0  0  0
   -1.6208   -1.0583    0.0000 C   0  0  0  0  0  0           0  0  0
    0.4292   -0.0500    0.0000 O   0  0  0  0  0  0           0  0  0
   -2.3333    0.1833    0.0000 C   0  0  0  0  0  0           0  0  0
   -2.3375   -0.6375    0.0000 C   0  0  0  0  0  0           0  0  0
    2.6333   -0.2875    0.0000 O   0  0  0  0  0  0           0  0  0
    2.6375   -2.7708    0.0000 O   0  0  0  0  0  0           0  0  0
   -0.0875   -2.9500    0.0000 O   0  0  0  0  0  0           0  0  0
    3.3500   -1.5250    0.0000 O   0  0  0  0  0  0           0  0  0
    1.2250   -0.3375    0.0000 C   0  0  0  0  0  0           0  0  0
   -3.0542   -1.0458    0.0000 O   0  0  0  0  0  0           0  0  0
   -0.7833    2.7417    0.0000 C   0  0  0  0  0  0           0  0  0
    1.9375    0.0792    0.0000 C   0  0  0  0  0  0           0  0  0
   -1.4833    3.1708    0.0000 C   0  0  0  0  0  0           0  0  0
   -2.9083    3.2042    0.0000 C   0  0  0  0  0  0           0  0  0
    1.2167    1.3167    0.0000 C   0  0  0  0  0  0           0  0  0
   -2.2042    2.7708    0.0000 C   0  0  0  0  0  0           0  0  0
    1.9333    0.9042    0.0000 C   0  0  0  0  0  0           0  0  0
   -3.6292    2.8000    0.0000 C   0  0  0  0  0  0           0  0  0
    1.2125    2.1417    0.0000 C   0  0  0  0  0  0           0  0  0
  2  4  1  0     0  0
  3  1  1  0     0  0
  4  5  2  0     0  0
  5  9  1  0     0  0
  6  3  2  0     0  0
  7  3  1  0     0  0
  8 12  1  0     0  0
  9  6  1  0     0  0
 10  1  1  0     0  0
 11  5  1  0     0  0
 12 11  2  0     0  0
 13 15  2  0     0  0
 14  2  1  0     0  0
 15 10  1  0     0  0
 16  6  1  0     0  0
 17  1  2  0     0  0
 18  7  2  0     0  0
 19 18  1  0     0  0
 20 14  2  0     0  0
 21  8  1  0     0  0
 22 11  1  0     0  0
 23 14  1  0     0  0
 24  4  1  0     0  0
 25 19  1  0     0  0
 26 15  1  0     0  0
 27 24  1  0     0  0
 28 26  1  0     0  0
 29 31  1  0     0  0
 30 32  1  0     0  0
 31 28  1  0     0  0
 32 27  1  0     0  0
 33 29  1  0     0  0
 34 30  1  0     0  0
 13  7  1  0     0  0
 19 16  2  0     0  0
  8  2  2  0     0  0
M  END
>  <prID>
322

>  <IDDB>
92378

>  <pIC50_HIV_Integrase>
4.3400838

>  <Q>
-5.333058497

>  <Activity_Integrase>
Inactive_Integrase

NA
NA
NA
NA
$$$$

  Accelrys05311914342D 1   1.00000     0.00000     0

 25 27  0     0  0            999 V2000
   -0.9667    0.3292    0.0000 C   0  0  0  0  0  0           0  0  0
   -0.9625   -0.4750    0.0000 C   0  0  0  0  0  0           0  0  0
   -0.4500    0.8292    0.0000 C   0  0  0  0  0  0           0  0  0
    1.0375    0.3417    0.0000 C   0  0  0  0  0  0           0  0  0
   -1.6625   -0.8792    0.0000 C   0  0  0  0  0  0           0  0  0
    0.4000    0.8458    0.0000 O   0  0  0  0  0  0           0  0  0
   -0.0500   -0.8958    0.0000 O   0  0  0  0  0  0           0  0  0
    1.0375   -0.4583    0.0000 C   0  0  0  0  0  0           0  0  0
   -1.6625    0.7250    0.0000 C   0  0  0  0  0  0           0  0  0
   -2.3542   -0.4792    0.0000 C   0  0  0  0  0  0           0  0  0
   -2.3542    0.3250    0.0000 C   0  0  0  0  0  0           0  0  0
    1.7292    0.7417    0.0000 C   0  0  0  0  0  0           0  0  0
    2.4250    0.3458    0.0000 C   0  0  0  0  0  0           0  0  0
    1.7333   -0.8583    0.0000 C   0  0  0  0  0  0           0  0  0
    2.4292   -0.4583    0.0000 C   0  0  0  0  0  0           0  0  0
   -0.4542    1.6625    0.0000 O   0  0  0  0  0  0           0  0  0
   -1.6667   -1.7000    0.0000 C   0  0  0  0  0  0           0  0  0
   -3.0708    0.7417    0.0000 Cl  0  0  0  0  0  0           0  0  0
   -0.9542   -2.1125    0.0000 O   0  0  0  0  0  0           0  0  0
   -2.9417   -1.0583    0.0000 O   0  0  0  0  0  0           0  0  0
    3.1167    0.7500    0.0000 O   0  0  0  0  0  0           0  0  0
   -1.6667    1.5292    0.0000 C   0  0  0  0  0  0           0  0  0
    1.7250    1.5458    0.0000 C   0  0  0  0  0  0           0  0  0
    1.7250   -1.6583    0.0000 C   0  0  0  0  0  0           0  0  0
    3.8083    0.3500    0.0000 C   0  0  0  0  0  0           0  0  0
  2  1  2  0     0  0
  3  1  1  0     0  0
  4  6  1  0     0  0
  5  2  1  0     0  0
  6  3  1  0     0  0
  7  2  1  0     0  0
  8  7  1  0     0  0
  9  1  1  0     0  0
 10 11  1  0     0  0
 11  9  2  0     0  0
 12  4  2  0     0  0
 13 12  1  0     0  0
 14  8  2  0     0  0
 15 14  1  0     0  0
 16  3  2  0     0  0
 17  5  1  0     0  0
 18 11  1  0     0  0
 19 17  2  0     0  0
 20 10  1  0     0  0
 21 13  1  0     0  0
 22  9  1  0     0  0
 23 12  1  0     0  0
 24 14  1  0     0  0
 25 21  1  0     0  0
 10  5  2  0     0  0
  4  8  1  0     0  0
 13 15  2  0     0  0
M  END
>  <prID>
323

>  <IDDB>
92385

>  <pIC50_HIV_Integrase>
5.721246399

>  <Q>
-2.139399287

>  <Activity_Integrase>
Inactive_Integrase

NA
NA
NA
NA
$$$$

  Accelrys05311914342D 1   1.00000     0.00000     0

 30 31  0     0  0            999 V2000
   -1.3750    0.5458    0.0000 N   0  0  0  0  0  0           0  0  0
   -2.0208    0.6958    0.0000 C   0  0  3  0  0  0           0  0  0
   -1.1792   -0.0792    0.0000 C   0  0  0  0  0  0           0  0  0
    0.5792    0.1000    0.0000 C   0  0  0  0  0  0           0  0  0
   -2.4792    0.2167    0.0000 C   0  0  0  0  0  0           0  0  0
   -0.5292   -0.2333    0.0000 C   0  0  3  0  0  0           0  0  0
   -0.0667    0.2458    0.0000 N   0  0  0  0  0  0           0  0  0
   -1.6333   -0.5625    0.0000 O   0  0  0  0  0  0           0  0  0
   -0.7000   -0.8708    0.0000 C   0  0  0  0  0  0           0  0  0
    0.7167   -0.3417    0.0000 O   0  0  0  0  0  0           0  0  0
   -2.2833   -0.4167    0.0000 O   0  0  0  0  0  0           0  0  0
    1.0375    0.5792    0.0000 O   0  0  0  0  0  0           0  0  0
   -2.2167    1.3250    0.0000 C   0  0  3  0  0  0           0  0  0
   -0.2375   -1.3375    0.0000 C   0  0  0  0  0  0           0  0  0
   -3.1250    0.3625    0.0000 O   0  0  0  0  0  0           0  0  0
    0.7000   -2.2750    0.0000 C   0  0  0  0  0  0           0  0  0
    1.6917    0.4333    0.0000 C   0  0  0  0  0  0           0  0  0
    0.4125   -1.1708    0.0000 C   0  0  0  0  0  0           0  0  0
   -0.4167   -1.9792    0.0000 C   0  0  0  0  0  0           0  0  0
    0.0583   -2.4417    0.0000 C   0  0  0  0  0  0           0  0  0
    0.8792   -1.6375    0.0000 C   0  0  0  0  0  0           0  0  0
   -2.8667    1.4750    0.0000 O   0  0  0  0  0  0           0  0  0
    2.1375    0.9125    0.0000 C   0  0  0  0  0  0           0  0  0
    1.1667   -2.7458    0.0000 O   0  0  0  0  0  0           0  0  0
   -1.7625    1.8042    0.0000 C   0  0  0  0  0  0           0  0  0
    2.7958    0.7625    0.0000 C   0  0  0  0  0  0           0  0  0
    1.9500    1.5417    0.0000 C   0  0  0  0  0  0           0  0  0
    3.2500    1.2417    0.0000 C   0  0  0  0  0  0           0  0  0
    2.4042    2.0250    0.0000 C   0  0  0  0  0  0           0  0  0
    3.0583    1.8750    0.0000 C   0  0  0  0  0  0           0  0  0
  2  1  1  0     0  0
  3  1  1  0     0  0
  4  7  1  0     0  0
  5  2  1  0     0  0
  6  3  1  0     0  0
  7  6  1  0     0  0
  8  3  2  0     0  0
  9  6  1  0     0  0
 10  4  2  0     0  0
 11  5  2  0     0  0
 12  4  1  0     0  0
 13  2  1  0     0  0
 14  9  1  0     0  0
 15  5  1  0     0  0
 16 21  1  0     0  0
 17 12  1  0     0  0
 18 14  1  0     0  0
 19 14  2  0     0  0
 20 19  1  0     0  0
 21 18  2  0     0  0
 22 13  1  0     0  0
 23 17  1  0     0  0
 24 16  1  0     0  0
 25 13  1  0     0  0
 26 23  2  0     0  0
 27 23  1  0     0  0
 28 26  1  0     0  0
 29 27  2  0     0  0
 30 29  1  0     0  0
 16 20  2  0     0  0
 30 28  2  0     0  0
M  END
>  <prID>
324

>  <IDDB>
92386

>  <pIC50_HIV_Integrase>
5.27572413

>  <Q>
-4.279520238

>  <Activity_Integrase>
Inactive_Integrase

NA
NA
NA
NA
$$$$

  Accelrys05311914342D 1   1.00000     0.00000     0

 39 43  0     0  0            999 V2000
   -0.4417   -0.2583    0.0000 C   0  0  3  0  0  0           0  0  0
    0.3833   -0.3000    0.0000 C   0  0  3  0  0  0           0  0  0
   -0.9625   -0.9000    0.0000 C   0  0  0  0  0  0           0  0  0
    0.8458   -0.9917    0.0000 C   0  0  0  0  0  0           0  0  0
    0.6792    0.4625    0.0000 C   0  0  3  0  0  0           0  0  0
   -0.6542    0.5292    0.0000 C   0  0  3  0  0  0           0  0  0
    0.0375    0.9792    0.0000 O   0  0  0  0  0  0           0  0  0
   -1.7417   -0.9125    0.0000 C   0  0  0  0  0  0           0  0  0
    1.7000   -1.0125    0.0000 C   0  0  0  0  0  0           0  0  0
   -2.1583   -1.6167    0.0000 C   0  0  0  0  0  0           0  0  0
    2.1167   -1.7292    0.0000 C   0  0  0  0  0  0           0  0  0
   -2.1500   -0.1917    0.0000 C   0  0  0  0  0  0           0  0  0
    2.1167   -0.2958    0.0000 C   0  0  0  0  0  0           0  0  0
    1.3000    1.0000    0.0000 C   0  0  0  0  0  0           0  0  0
   -1.2333    1.1083    0.0000 C   0  0  0  0  0  0           0  0  0
   -2.9833   -1.6042    0.0000 C   0  0  0  0  0  0           0  0  0
    2.9417   -1.7333    0.0000 C   0  0  0  0  0  0           0  0  0
   -0.6667   -1.6625    0.0000 O   0  0  0  0  0  0           0  0  0
    0.4792   -1.7375    0.0000 O   0  0  0  0  0  0           0  0  0
   -1.9458    0.7000    0.0000 C   0  0  0  0  0  0           0  0  0
   -1.2333    1.9375    0.0000 C   0  0  0  0  0  0           0  0  0
    1.3125    1.8292    0.0000 C   0  0  0  0  0  0           0  0  0
    2.0042    0.5792    0.0000 C   0  0  0  0  0  0           0  0  0
   -3.3958   -0.8917    0.0000 C   0  0  0  0  0  0           0  0  0
    3.3625   -1.0167    0.0000 C   0  0  0  0  0  0           0  0  0
   -1.7417   -2.3375    0.0000 O   0  0  0  0  0  0           0  0  0
    1.6917   -2.4458    0.0000 O   0  0  0  0  0  0           0  0  0
   -2.9792   -0.1833    0.0000 C   0  0  0  0  0  0           0  0  0
    2.9458   -0.3000    0.0000 C   0  0  0  0  0  0           0  0  0
    2.7417    1.8125    0.0000 C   0  0  0  0  0  0           0  0  0
   -2.6625    1.9417    0.0000 C   0  0  0  0  0  0           0  0  0
    2.7333    0.9833    0.0000 C   0  0  0  0  0  0           0  0  0
   -1.9458    2.3500    0.0000 C   0  0  0  0  0  0           0  0  0
   -2.6625    1.1083    0.0000 C   0  0  0  0  0  0           0  0  0
    2.0333    2.2375    0.0000 C   0  0  0  0  0  0           0  0  0
   -4.2292   -0.8792    0.0000 O   0  0  0  0  0  0           0  0  0
    4.1917   -1.0458    0.0000 O   0  0  0  0  0  0           0  0  0
    3.4792    2.2125    0.0000 O   0  0  0  0  0  0           0  0  0
   -3.3833    2.3625    0.0000 O   0  0  0  0  0  0           0  0  0
  2  1  1  0     0  0
  3  1  1  0     0  0
  4  2  1  0     0  0
  5  2  1  0     0  0
  6  1  1  0     0  0
  7  6  1  0     0  0
  8  3  1  0     0  0
  9  4  1  0     0  0
 10  8  2  0     0  0
 11  9  2  0     0  0
 12  8  1  0     0  0
 13  9  1  0     0  0
 14  5  1  0     0  0
 15  6  1  0     0  0
 16 10  1  0     0  0
 17 11  1  0     0  0
 18  3  2  0     0  0
 19  4  2  0     0  0
 20 15  1  0     0  0
 21 15  2  0     0  0
 22 14  2  0     0  0
 23 14  1  0     0  0
 24 28  1  0     0  0
 25 29  1  0     0  0
 26 10  1  0     0  0
 27 11  1  0     0  0
 28 12  2  0     0  0
 29 13  2  0     0  0
 30 32  1  0     0  0
 31 33  2  0     0  0
 32 23  2  0     0  0
 33 21  1  0     0  0
 34 20  2  0     0  0
 35 22  1  0     0  0
 36 24  1  0     0  0
 37 25  1  0     0  0
 38 30  1  0     0  0
 39 31  1  0     0  0
  7  5  1  0     0  0
 31 34  1  0     0  0
 24 16  2  0     0  0
 30 35  2  0     0  0
 25 17  2  0     0  0
M  END
>  <prID>
325

>  <IDDB>
92388

>  <pIC50_HIV_Integrase>
4.498940738

>  <Q>
-3.63693432

>  <Activity_Integrase>
Inactive_Integrase

NA
NA
NA
NA
$$$$

  Accelrys05311914342D 1   1.00000     0.00000     0

 23 25  0     0  0            999 V2000
   -1.5167   -0.0167    0.0000 C   0  0  3  0  0  0           0  0  0
   -0.6958   -0.0167    0.0000 C   0  0  3  0  0  0           0  0  0
   -1.7708    0.7667    0.0000 C   0  0  3  0  0  0           0  0  0
   -0.4417    0.7667    0.0000 C   0  0  0  0  0  0           0  0  0
   -1.1000    1.2500    0.0000 O   0  0  0  0  0  0           0  0  0
    2.1708   -0.0167    0.0000 C   0  0  0  0  0  0           0  0  0
   -2.1875   -0.5000    0.0000 O   0  0  0  0  0  0           0  0  0
    0.7333   -0.0167    0.0000 C   0  0  0  0  0  0           0  0  0
    2.1667   -0.8458    0.0000 C   0  0  0  0  0  0           0  0  0
    0.0167    0.3958    0.0000 C   0  0  0  0  0  0           0  0  0
    1.4542    0.3958    0.0000 C   0  0  0  0  0  0           0  0  0
    1.4458   -1.2583    0.0000 C   0  0  0  0  0  0           0  0  0
   -2.5917    0.7667    0.0000 C   0  0  3  0  0  0           0  0  0
    0.7375   -0.8458    0.0000 C   0  0  0  0  0  0           0  0  0
   -2.8583   -0.0042    0.0000 C   0  0  0  0  0  0           0  0  0
    0.3458    1.0208    0.0000 O   0  0  0  0  0  0           0  0  0
   -1.2625   -0.8042    0.0000 O   0  0  0  0  0  0           0  0  0
   -0.2833   -0.7250    0.0000 O   0  0  0  0  0  0           0  0  0
    2.8875    0.4042    0.0000 Br  0  0  0  0  0  0           0  0  0
    1.4542    1.2208    0.0000 Br  0  0  0  0  0  0           0  0  0
    2.8917   -1.2625    0.0000 O   0  0  0  0  0  0           0  0  0
    1.4375   -2.0833    0.0000 O   0  0  0  0  0  0           0  0  0
   -3.0792    1.4417    0.0000 O   0  0  0  0  0  0           0  0  0
  2  1  1  0     0  0
  3  1  1  0     0  0
  4  2  1  0     0  0
  5  3  1  0     0  0
  6 11  1  0     0  0
  7  1  1  0     0  0
  8 10  1  0     0  0
  9 12  1  0     0  0
 10  2  1  0     0  0
 11  8  2  0     0  0
 12 14  2  0     0  0
 13  3  1  0     0  0
 14  8  1  0     0  0
 15  7  1  0     0  0
 16  4  2  0     0  0
 17  1  1  0     0  0
 18  2  1  0     0  0
 19  6  1  0     0  0
 20 11  1  0     0  0
 21  9  1  0     0  0
 22 12  1  0     0  0
 23 13  1  0     0  0
 15 13  1  0     0  0
  5  4  1  0     0  0
  9  6  2  0     0  0
M  END
>  <prID>
326

>  <IDDB>
92389

>  <pIC50_HIV_Integrase>
5.214670165

>  <Q>
-5.335107275

>  <Activity_Integrase>
Inactive_Integrase

NA
NA
NA
NA
$$$$

  Accelrys05311914342D 1   1.00000     0.00000     0

 27 28  0     0  0            999 V2000
    2.1333    0.6833    0.0000 C   0  0  0  0  0  0           0  0  0
    1.4167   -0.5417    0.0000 C   0  0  0  0  0  0           0  0  0
   -2.1292    0.6833    0.0000 C   0  0  0  0  0  0           0  0  0
   -1.4208   -0.5417    0.0000 C   0  0  0  0  0  0           0  0  0
    2.1333   -0.1333    0.0000 C   0  0  0  0  0  0           0  0  0
   -2.1292   -0.1333    0.0000 C   0  0  0  0  0  0           0  0  0
    1.4167   -1.3667    0.0000 N   0  3  0  0  0  0           0  0  0
    2.8333    1.0917    0.0000 N   0  3  0  0  0  0           0  0  0
   -2.8417    1.0917    0.0000 N   0  3  0  0  0  0           0  0  0
   -1.4208   -1.3667    0.0000 N   0  3  0  0  0  0           0  0  0
    1.4167    1.0917    0.0000 C   0  0  0  0  0  0           0  0  0
   -1.4208    1.0917    0.0000 C   0  0  0  0  0  0           0  0  0
   -0.7083   -0.1333    0.0000 C   0  0  0  0  0  0           0  0  0
    0.7125   -0.1333    0.0000 C   0  0  0  0  0  0           0  0  0
   -0.7083    0.6833    0.0000 C   0  0  0  0  0  0           0  0  0
    0.7125    0.6833    0.0000 C   0  0  0  0  0  0           0  0  0
    2.8333    1.9083    0.0000 O   0  5  0  0  0  0           0  0  0
    3.5417    0.6833    0.0000 O   0  0  0  0  0  0           0  0  0
    0.8042   -1.9750    0.0000 O   0  5  0  0  0  0           0  0  0
    2.0250   -1.9750    0.0000 O   0  0  0  0  0  0           0  0  0
   -3.5417    0.6833    0.0000 O   0  5  0  0  0  0           0  0  0
   -2.8417    1.9083    0.0000 O   0  0  0  0  0  0           0  0  0
   -0.8125   -1.9750    0.0000 O   0  5  0  0  0  0           0  0  0
   -2.0375   -1.9750    0.0000 O   0  0  0  0  0  0           0  0  0
    0.0000    1.0917    0.0000 C   0  0  0  0  0  0           0  0  0
    2.8333   -0.5417    0.0000 O   0  0  0  0  0  0           0  0  0
   -2.8417   -0.5417    0.0000 O   0  0  0  0  0  0           0  0  0
  2  5  2  0     0  0
  3 12  1  0     0  0
  4 13  2  0     0  0
  5  1  1  0     0  0
  6  4  1  0     0  0
  7  2  1  0     0  0
  8  1  1  0     0  0
  9  3  1  0     0  0
 10  4  1  0     0  0
 11  1  2  0     0  0
 12 15  2  0     0  0
 13 15  1  0     0  0
 14 16  2  0     0  0
 15 25  1  0     0  0
 16 11  1  0     0  0
 17  8  1  0     0  0
 18  8  2  0     0  0
 19  7  1  0     0  0
 20  7  2  0     0  0
 21  9  1  0     0  0
 22  9  2  0     0  0
 23 10  1  0     0  0
 24 10  2  0     0  0
 25 16  1  0     0  0
 26  5  1  0     0  0
 27  6  1  0     0  0
 14  2  1  0     0  0
  6  3  2  0     0  0
M  CHG  8   7   1   8   1   9   1  10   1  17  -1  19  -1  21  -1  23  -1
M  END
>  <prID>
327

>  <IDDB>
92390

>  <pIC50_HIV_Integrase>
4.164309429

>  <Q>
-1.096541219

>  <Activity_Integrase>
Inactive_Integrase

NA
NA
NA
NA
$$$$

  Accelrys05311914342D 1   1.00000     0.00000     0

 32 34  0     0  0            999 V2000
   -3.5542    2.2208    0.0000 N   0  3  0  0  0  0           0  0  0
   -0.6875    0.5625    0.0000 C   0  0  0  0  0  0           0  0  0
    0.0333    0.9708    0.0000 N   0  0  0  0  0  0           0  0  0
    1.4583    0.9708    0.0000 C   0  0  0  0  0  0           0  0  0
    0.7458    0.5625    0.0000 C   0  0  1  0  0  0           0  0  0
   -2.8333    1.8000    0.0000 C   0  0  0  0  0  0           0  0  0
   -1.1083   -1.4292    0.0000 C   0  0  0  0  0  0           0  0  0
   -1.4000    0.9750    0.0000 C   0  0  0  0  0  0           0  0  0
   -3.5500    3.0500    0.0000 O   0  5  0  0  0  0           0  0  0
   -4.2667    1.8083    0.0000 O   0  0  0  0  0  0           0  0  0
    2.1750    0.5625    0.0000 O   0  0  0  0  0  0           0  0  0
    0.7458   -0.2708    0.0000 C   0  0  0  0  0  0           0  0  0
   -0.8083   -2.2000    0.0000 C   0  0  0  0  0  0           0  0  0
   -0.7000   -0.1500    0.0000 O   0  0  0  0  0  0           0  0  0
   -0.5917   -0.7875    0.0000 C   0  0  0  0  0  0           0  0  0
    0.2208   -0.9167    0.0000 C   0  0  0  0  0  0           0  0  0
    1.4583    1.8000    0.0000 O   0  0  0  0  0  0           0  0  0
   -2.8375    0.9708    0.0000 C   0  0  0  0  0  0           0  0  0
   -2.1167    2.2167    0.0000 C   0  0  0  0  0  0           0  0  0
   -1.4000    1.8000    0.0000 C   0  0  0  0  0  0           0  0  0
   -2.1208    0.5625    0.0000 C   0  0  0  0  0  0           0  0  0
    0.0042   -2.3292    0.0000 C   0  0  0  0  0  0           0  0  0
    2.1750   -0.2708    0.0000 C   0  0  0  0  0  0           0  0  0
    0.5208   -1.6875    0.0000 C   0  0  0  0  0  0           0  0  0
   -1.9292   -1.3083    0.0000 O   0  0  0  0  0  0           0  0  0
   -1.3292   -2.8583    0.0000 O   0  0  0  0  0  0           0  0  0
    2.8875   -0.6833    0.0000 C   0  0  0  0  0  0           0  0  0
    3.6042   -0.2667    0.0000 C   0  0  0  0  0  0           0  0  0
    2.8875   -1.5083    0.0000 C   0  0  0  0  0  0           0  0  0
    4.3208   -0.6792    0.0000 C   0  0  0  0  0  0           0  0  0
    3.6000   -1.9208    0.0000 C   0  0  0  0  0  0           0  0  0
    4.3208   -1.5125    0.0000 C   0  0  0  0  0  0           0  0  0
  2  8  1  0     0  0
  3  2  1  0     0  0
  4  5  1  0     0  0
  5  3  1  0     0  0
  6  1  1  0     0  0
  7 15  2  0     0  0
  8 20  1  0     0  0
  9  1  1  0     0  0
 10  1  2  0     0  0
 11  4  1  0     0  0
  5 12  1  1     0  0
 13 22  2  0     0  0
 14  2  2  0     0  0
 15 16  1  0     0  0
 16 12  1  0     0  0
 17  4  2  0     0  0
 18  6  2  0     0  0
 19  6  1  0     0  0
 20 19  2  0     0  0
 21 18  1  0     0  0
 22 24  1  0     0  0
 23 11  1  0     0  0
 24 16  2  0     0  0
 25  7  1  0     0  0
 26 13  1  0     0  0
 27 23  1  0     0  0
 28 27  1  0     0  0
 29 27  2  0     0  0
 30 28  2  0     0  0
 31 29  1  0     0  0
 32 30  1  0     0  0
 21  8  2  0     0  0
 13  7  1  0     0  0
 32 31  2  0     0  0
M  CHG  2   1   1   9  -1
M  END
>  <prID>
328

>  <IDDB>
92391

>  <pIC50_HIV_Integrase>
4.504455662

>  <Q>
-1.523633838

>  <Activity_Integrase>
Inactive_Integrase

NA
NA
NA
NA
$$$$

  Accelrys05311914342D 1   1.00000     0.00000     0

 26 27  0     0  0            999 V2000
   -1.3542   -0.5708    0.0000 C   0  0  0  0  0  0           0  0  0
   -1.3375    0.6167    0.0000 C   0  0  0  0  0  0           0  0  0
    1.3333   -0.6083    0.0000 C   0  0  0  0  0  0           0  0  0
    1.3500    0.5750    0.0000 C   0  0  0  0  0  0           0  0  0
   -1.6958    0.0208    0.0000 C   0  0  0  0  0  0           0  0  0
    1.6792   -0.0250    0.0000 C   0  0  0  0  0  0           0  0  0
   -1.6667    1.2042    0.0000 N   0  3  0  0  0  0           0  0  0
   -1.6833   -1.1458    0.0000 N   0  3  0  0  0  0           0  0  0
    1.6583   -1.1833    0.0000 N   0  3  0  0  0  0           0  0  0
    1.6917    1.1542    0.0000 N   0  3  0  0  0  0           0  0  0
    0.6583   -0.6000    0.0000 C   0  0  0  0  0  0           0  0  0
    0.6792    0.5833    0.0000 C   0  0  0  0  0  0           0  0  0
   -0.6875   -0.5792    0.0000 C   0  0  0  0  0  0           0  0  0
   -0.6708    0.6042    0.0000 C   0  0  0  0  0  0           0  0  0
   -0.3417    0.0042    0.0000 C   0  0  0  0  0  0           0  0  0
    0.3333   -0.0042    0.0000 C   0  0  0  0  0  0           0  0  0
   -2.3583   -1.0833    0.0000 O   0  5  0  0  0  0           0  0  0
   -1.3375   -1.7417    0.0000 O   0  0  0  0  0  0           0  0  0
   -1.4833    1.8583    0.0000 O   0  5  0  0  0  0           0  0  0
   -2.3208    0.9750    0.0000 O   0  0  0  0  0  0           0  0  0
    1.4250   -1.8167    0.0000 O   0  5  0  0  0  0           0  0  0
    2.3250   -1.0042    0.0000 O   0  0  0  0  0  0           0  0  0
    2.3583    1.0417    0.0000 O   0  5  0  0  0  0           0  0  0
    1.3875    1.7750    0.0000 O   0  0  0  0  0  0           0  0  0
   -2.3625    0.0333    0.0000 O   0  0  0  0  0  0           0  0  0
    2.3583   -0.0375    0.0000 O   0  0  0  0  0  0           0  0  0
  2  5  2  0     0  0
  3 11  1  0     0  0
  4 12  2  0     0  0
  5  1  1  0     0  0
  6  4  1  0     0  0
  7  2  1  0     0  0
  8  1  1  0     0  0
  9  3  1  0     0  0
 10  4  1  0     0  0
 11 16  2  0     0  0
 12 16  1  0     0  0
 13  1  2  0     0  0
 14  2  1  0     0  0
 15 13  1  0     0  0
 16 15  1  0     0  0
 17  8  1  0     0  0
 18  8  2  0     0  0
 19  7  1  0     0  0
 20  7  2  0     0  0
 21  9  1  0     0  0
 22  9  2  0     0  0
 23 10  1  0     0  0
 24 10  2  0     0  0
 25  5  1  0     0  0
 26  6  1  0     0  0
 14 15  2  0     0  0
  6  3  2  0     0  0
M  CHG  8   7   1   8   1   9   1  10   1  17  -1  19  -1  21  -1  23  -1
M  END
>  <prID>
329

>  <IDDB>
92392

>  <pIC50_HIV_Integrase>
4.256490235

>  <Q>
-0.824443676

>  <Activity_Integrase>
Inactive_Integrase

NA
NA
NA
NA
$$$$

  Accelrys05311914342D 1   1.00000     0.00000     0

 23 25  0     0  0            999 V2000
    5.1125   -4.8875    0.0000 C   0  0  0  0  0  0           0  0  0
    5.8292   -5.3000    0.0000 N   0  0  0  0  0  0           0  0  0
    5.1125   -4.0625    0.0000 C   0  0  0  0  0  0           0  0  0
    5.8208   -3.6458    0.0000 C   0  0  0  0  0  0           0  0  0
    6.5375   -4.0542    0.0000 C   0  0  0  0  0  0           0  0  0
    4.3958   -5.3042    0.0000 C   0  0  0  0  0  0           0  0  0
    6.5292   -2.4042    0.0000 N   0  0  0  0  0  0           0  0  0
    4.3958   -3.6500    0.0000 C   0  0  0  0  0  0           0  0  0
    6.5417   -4.8833    0.0000 C   0  0  0  0  0  0           0  0  0
    5.8167   -2.8208    0.0000 N   0  0  0  0  0  0           0  0  0
    7.9375    0.0750    0.0000 N   0  0  0  0  0  0           0  0  0
    6.5250   -1.5792    0.0000 C   0  0  0  0  0  0           0  0  0
    7.2375   -1.1625    0.0000 C   0  0  0  0  0  0           0  0  0
    3.6833   -4.8917    0.0000 C   0  0  0  0  0  0           0  0  0
    3.6833   -4.0625    0.0000 C   0  0  0  0  0  0           0  0  0
    7.2250   -0.3417    0.0000 C   0  0  0  0  0  0           0  0  0
    2.9667   -5.3042    0.0000 O   0  0  0  0  0  0           0  0  0
    8.6583   -0.3333    0.0000 C   0  0  0  0  0  0           0  0  0
    7.2583   -5.2917    0.0000 C   0  0  0  0  0  0           0  0  0
    7.9500   -1.5750    0.0000 C   0  0  0  0  0  0           0  0  0
    2.2542   -4.8917    0.0000 C   0  0  0  0  0  0           0  0  0
    8.6625   -1.1583    0.0000 C   0  0  0  0  0  0           0  0  0
    1.5375   -5.3042    0.0000 C   0  0  0  0  0  0           0  0  0
  2  1  1  0     0  0
  3  1  2  0     0  0
  4  3  1  0     0  0
  5  9  1  0     0  0
  6  1  1  0     0  0
  7 10  1  0     0  0
  8  3  1  0     0  0
  9  2  2  0     0  0
 10  4  1  0     0  0
 11 16  2  0     0  0
 12  7  2  0     0  0
 13 12  1  0     0  0
 14  6  2  0     0  0
 15 14  1  0     0  0
 16 13  1  0     0  0
 17 14  1  0     0  0
 18 11  1  0     0  0
 19  9  1  0     0  0
 20 13  2  0     0  0
 21 17  1  0     0  0
 22 20  1  0     0  0
 23 21  1  0     0  0
  4  5  2  0     0  0
 15  8  2  0     0  0
 18 22  2  0     0  0
M  END
>  <prID>
330

>  <IDDB>
92393

>  <pIC50_HIV_Integrase>
6.22184875

>  <Q>
-0.560332181

>  <Activity_Integrase>
Active_Integrase

NA
NA
NA
NA
$$$$

  Accelrys05311914342D 1   1.00000     0.00000     0

 35 37  0     0  0            999 V2000
   -2.2250    0.0833    0.0000 C   0  0  0  0  0  0           0  0  0
    1.9583    0.0625    0.0000 C   0  0  0  0  0  0           0  0  0
    0.6167   -1.2625    0.0000 C   0  0  0  0  0  0           0  0  0
   -0.1167    0.8292    0.0000 C   0  0  3  0  0  0           0  0  0
   -0.9625    0.8292    0.0000 C   0  0  0  0  0  0           0  0  0
    0.7292    0.8208    0.0000 C   0  0  0  0  0  0           0  0  0
   -0.1083   -0.0083    0.0000 C   0  0  0  0  0  0           0  0  0
   -1.3792    0.0833    0.0000 C   0  0  0  0  0  0           0  0  0
    1.1250    0.0833    0.0000 C   0  0  0  0  0  0           0  0  0
    0.6167   -0.4250    0.0000 C   0  0  0  0  0  0           0  0  0
   -2.6542    0.8208    0.0000 C   0  0  0  0  0  0           0  0  0
    2.3917    0.7750    0.0000 C   0  0  0  0  0  0           0  0  0
   -0.1083   -1.6792    0.0000 C   0  0  0  0  0  0           0  0  0
    2.5500   -0.3583    0.0000 C   0  0  0  0  0  0           0  0  0
   -2.8333   -0.5125    0.0000 C   0  0  0  0  0  0           0  0  0
    1.3625   -1.6875    0.0000 C   0  0  0  0  0  0           0  0  0
    1.9958    1.5042    0.0000 C   0  0  0  0  0  0           0  0  0
   -2.2292    1.5458    0.0000 C   0  0  0  0  0  0           0  0  0
   -0.8333   -1.2625    0.0000 C   0  0  0  0  0  0           0  0  0
    1.1625    1.5292    0.0000 C   0  0  0  0  0  0           0  0  0
   -1.3833    1.5500    0.0000 C   0  0  0  0  0  0           0  0  0
   -0.8333   -0.4292    0.0000 C   0  0  0  0  0  0           0  0  0
   -3.5125   -0.0375    0.0000 O   0  0  0  0  0  0           0  0  0
    2.5583   -1.1125    0.0000 O   0  0  0  0  0  0           0  0  0
    2.1042   -1.2625    0.0000 O   0  0  0  0  0  0           0  0  0
   -0.1250    1.6542    0.0000 O   0  0  0  0  0  0           0  0  0
   -3.5042    0.8208    0.0000 O   0  0  0  0  0  0           0  0  0
   -0.1083   -2.5292    0.0000 O   0  0  0  0  0  0           0  0  0
    3.2167    0.7750    0.0000 O   0  0  0  0  0  0           0  0  0
    3.4000   -0.1208    0.0000 O   0  0  0  0  0  0           0  0  0
    1.3625   -2.5458    0.0000 O   0  0  0  0  0  0           0  0  0
   -2.8417   -1.1792    0.0000 O   0  0  0  0  0  0           0  0  0
   -2.6625    2.2875    0.0000 C   0  0  0  0  0  0           0  0  0
    2.5833    2.1000    0.0000 C   0  0  0  0  0  0           0  0  0
   -1.3875   -1.6958    0.0000 C   0  0  0  0  0  0           0  0  0
  2  9  2  0     0  0
  3 10  1  0     0  0
  4  5  1  0     0  0
  5  8  1  0     0  0
  6  4  1  0     0  0
  7  4  1  0     0  0
  8  1  2  0     0  0
  9  6  1  0     0  0
 10  7  2  0     0  0
 11  1  1  0     0  0
 12 17  2  0     0  0
 13 19  1  0     0  0
 14  2  1  0     0  0
 15  1  1  0     0  0
 16  3  1  0     0  0
 17 20  1  0     0  0
 18 11  2  0     0  0
 19 22  2  0     0  0
 20  6  2  0     0  0
 21 18  1  0     0  0
 22  7  1  0     0  0
 23 15  2  0     0  0
 24 14  2  0     0  0
 25 16  2  0     0  0
 26  4  1  0     0  0
 27 11  1  0     0  0
 28 13  1  0     0  0
 29 12  1  0     0  0
 30 14  1  0     0  0
 31 16  1  0     0  0
 32 15  1  0     0  0
 33 18  1  0     0  0
 34 17  1  0     0  0
 35 19  1  0     0  0
 21  5  2  0     0  0
 13  3  2  0     0  0
 12  2  1  0     0  0
M  END
>  <prID>
331

>  <IDDB>
92394

>  <pIC50_HIV_Integrase>
4.446116973

>  <Q>
-4.528393554

>  <Activity_Integrase>
Inactive_Integrase

NA
NA
NA
NA
$$$$

  Accelrys05311914342D 1   1.00000     0.00000     0

 17 18  0     0  0            999 V2000
    1.0917    0.5000    0.0000 C   0  0  0  0  0  0           0  0  0
    0.3750    0.9000    0.0000 C   0  0  0  0  0  0           0  0  0
   -0.3333   -0.3417    0.0000 C   0  0  0  0  0  0           0  0  0
   -1.0500   -1.5792    0.0000 N   0  3  0  0  0  0           0  0  0
   -1.0458   -0.7583    0.0000 C   0  0  0  0  0  0           0  0  0
   -0.3375    0.4833    0.0000 C   0  0  0  0  0  0           0  0  0
    0.3833   -0.7500    0.0000 N   0  0  0  0  0  0           0  0  0
    1.1000   -0.3333    0.0000 C   0  0  0  0  0  0           0  0  0
    1.8042    0.9208    0.0000 C   0  0  0  0  0  0           0  0  0
   -0.3375   -1.9917    0.0000 O   0  5  0  0  0  0           0  0  0
   -1.7667   -1.9875    0.0000 O   0  0  0  0  0  0           0  0  0
    0.3667    1.7292    0.0000 O   0  0  0  0  0  0           0  0  0
    1.8000    1.7417    0.0000 O   0  0  0  0  0  0           0  0  0
    2.4833    0.4542    0.0000 O   0  0  0  0  0  0           0  0  0
   -1.7625   -0.3417    0.0000 C   0  0  0  0  0  0           0  0  0
   -1.0417    0.9000    0.0000 C   0  0  0  0  0  0           0  0  0
   -1.7625    0.4875    0.0000 C   0  0  0  0  0  0           0  0  0
  2  1  1  0     0  0
  3  7  1  0     0  0
  4  5  1  0     0  0
  5  3  1  0     0  0
  6  2  1  0     0  0
  7  8  1  0     0  0
  8  1  2  0     0  0
  9  1  1  0     0  0
 10  4  1  0     0  0
 11  4  2  0     0  0
 12  2  2  0     0  0
 13  9  2  0     0  0
 14  9  1  0     0  0
 15  5  2  0     0  0
 16  6  1  0     0  0
 17 16  2  0     0  0
  6  3  2  0     0  0
 17 15  1  0     0  0
M  CHG  2   4   1  10  -1
M  END
>  <prID>
332

>  <IDDB>
92395

>  <pIC50_HIV_Integrase>
4.777283529

>  <Q>
-0.839610414

>  <Activity_Integrase>
Inactive_Integrase

NA
NA
NA
NA
$$$$

  Accelrys05311914342D 1   1.00000     0.00000     0

 36 37  0     0  0            999 V2000
   -2.1000    0.5292    0.0000 C   0  0  0  0  0  0           0  0  0
    1.9125   -1.2083    0.0000 C   0  0  0  0  0  0           0  0  0
   -0.9542    1.1208    0.0000 C   0  0  0  0  0  0           0  0  0
    1.2750   -0.0917    0.0000 C   0  0  0  0  0  0           0  0  0
   -1.3583    0.4917    0.0000 C   0  0  0  0  0  0           0  0  0
    1.2708   -0.8375    0.0000 C   0  0  0  0  0  0           0  0  0
   -2.4417    1.1917    0.0000 C   0  0  0  0  0  0           0  0  0
    2.5542   -0.8375    0.0000 C   0  0  0  0  0  0           0  0  0
   -1.2958    1.7833    0.0000 C   0  0  0  0  0  0           0  0  0
    1.9125    0.2792    0.0000 C   0  0  0  0  0  0           0  0  0
   -1.0250   -0.1583    0.0000 N   0  3  0  0  0  0           0  0  0
    0.6042   -1.2333    0.0000 N   0  3  0  0  0  0           0  0  0
   -3.2167    1.2583    0.0000 N   0  3  0  0  0  0           0  0  0
    3.2333   -1.2125    0.0000 N   0  3  0  0  0  0           0  0  0
   -0.8708    2.4333    0.0000 N   0  3  0  0  0  0           0  0  0
    1.9125    1.0583    0.0000 N   0  3  0  0  0  0           0  0  0
    2.5542   -0.0958    0.0000 C   0  0  0  0  0  0           0  0  0
   -2.0333    1.8167    0.0000 C   0  0  0  0  0  0           0  0  0
   -2.8000   -0.5708    0.0000 C   0  0  0  0  0  0           0  0  0
    1.9208   -2.5792    0.0000 C   0  0  0  0  0  0           0  0  0
   -1.4250   -0.8292    0.0000 O   0  5  0  0  0  0           0  0  0
   -0.4000   -0.1333    0.0000 O   0  0  0  0  0  0           0  0  0
   -0.0208   -0.8458    0.0000 O   0  5  0  0  0  0           0  0  0
    0.6000   -1.9958    0.0000 O   0  0  0  0  0  0           0  0  0
    2.5792    1.4458    0.0000 O   0  5  0  0  0  0           0  0  0
    1.2375    1.4375    0.0000 O   0  0  0  0  0  0           0  0  0
   -0.0958    2.3917    0.0000 O   0  5  0  0  0  0           0  0  0
   -1.2250    3.1167    0.0000 O   0  0  0  0  0  0           0  0  0
   -3.5458    1.9625    0.0000 O   0  5  0  0  0  0           0  0  0
   -3.6625    0.6208    0.0000 O   0  0  0  0  0  0           0  0  0
    3.2417   -2.0000    0.0000 O   0  5  0  0  0  0           0  0  0
    3.8917   -0.8208    0.0000 O   0  0  0  0  0  0           0  0  0
   -3.5000   -0.2833    0.0000 O   0  0  0  0  0  0           0  0  0
    1.2375   -2.9042    0.0000 O   0  0  0  0  0  0           0  0  0
    2.5417   -2.8917    0.0000 O   0  0  0  0  0  0           0  0  0
   -2.6333   -1.3833    0.0000 O   0  0  0  0  0  0           0  0  0
  2  6  2  0     0  0
  3  5  1  0     0  0
  4  3  1  0     0  0
  5  1  2  0     0  0
  6  4  1  0     0  0
  7  1  1  0     0  0
  8 17  2  0     0  0
  9 18  1  0     0  0
 10  4  2  0     0  0
 11  5  1  0     0  0
 12  6  1  0     0  0
 13  7  1  0     0  0
 14  8  1  0     0  0
 15  9  1  0     0  0
 16 10  1  0     0  0
 17 10  1  0     0  0
 18  7  2  0     0  0
 19  1  1  0     0  0
 20  2  1  0     0  0
 21 11  1  0     0  0
 22 11  2  0     0  0
 23 12  1  0     0  0
 24 12  2  0     0  0
 25 16  1  0     0  0
 26 16  2  0     0  0
 27 15  1  0     0  0
 28 15  2  0     0  0
 29 13  1  0     0  0
 30 13  2  0     0  0
 31 14  1  0     0  0
 32 14  2  0     0  0
 33 19  2  0     0  0
 34 20  2  0     0  0
 35 20  1  0     0  0
 36 19  1  0     0  0
  9  3  2  0     0  0
  8  2  1  0     0  0
M  CHG  8  11   1  12   1  13   1  14   1  15   1  16   1  21  -1  23  -1
M  CHG  4  25  -1  27  -1  29  -1  31  -1
M  END
>  <prID>
333

>  <IDDB>
92396

>  <pIC50_HIV_Integrase>
4.661543506

>  <Q>
-1.475952993

>  <Activity_Integrase>
Inactive_Integrase

NA
NA
NA
NA
$$$$

  Accelrys05311914342D 1   1.00000     0.00000     0

 43 46  0     0  0            999 V2000
    0.3167   -0.6500    0.0000 C   0  0  0  0  0  0           0  0  0
    5.6250    2.4292    0.0000 N   0  3  0  0  0  0           0  0  0
   -1.1542   -2.2583    0.0000 N   0  3  0  0  0  0           0  0  0
   -5.3292   -1.7083    0.0000 N   0  3  0  0  0  0           0  0  0
    0.0875    0.1417    0.0000 C   0  0  3  0  0  0           0  0  0
   -0.4333   -1.8625    0.0000 C   0  0  0  0  0  0           0  0  0
    4.8167    2.3125    0.0000 C   0  0  0  0  0  0           0  0  0
   -4.8833   -1.0208    0.0000 C   0  0  0  0  0  0           0  0  0
   -0.4125   -1.0417    0.0000 C   0  0  0  0  0  0           0  0  0
    4.5167    1.5583    0.0000 C   0  0  0  0  0  0           0  0  0
    0.8958    0.2792    0.0000 N   0  0  3  0  0  0           0  0  0
   -0.4000    0.5208    0.0000 N   0  0  3  0  0  0           0  0  0
   -4.0625   -1.0583    0.0000 C   0  0  0  0  0  0           0  0  0
    3.7125    1.4458    0.0000 C   0  0  0  0  0  0           0  0  0
   -3.6208   -0.3750    0.0000 C   0  0  0  0  0  0           0  0  0
    3.4042    0.6833    0.0000 N   0  0  0  0  0  0           0  0  0
   -1.1708   -3.0792    0.0000 O   0  5  0  0  0  0           0  0  0
   -1.8625   -1.8333    0.0000 O   0  0  0  0  0  0           0  0  0
   -6.1375   -1.6667    0.0000 O   0  5  0  0  0  0           0  0  0
   -4.9542   -2.4375    0.0000 O   0  0  0  0  0  0           0  0  0
    6.1333    1.7917    0.0000 O   0  5  0  0  0  0           0  0  0
    5.9250    3.1875    0.0000 O   0  0  0  0  0  0           0  0  0
    2.6000    0.5708    0.0000 N   0  0  0  0  0  0           0  0  0
    0.1125    1.4583    0.0000 C   0  0  0  0  0  0           0  0  0
    1.0125    1.0875    0.0000 C   0  0  0  0  0  0           0  0  0
   -2.3667    0.1625    0.0000 N   0  0  0  0  0  0           0  0  0
   -2.8042   -0.4167    0.0000 C   0  0  0  0  0  0           0  0  0
    1.0083   -1.0792    0.0000 C   0  0  0  0  0  0           0  0  0
   -1.2250   -0.7625    0.0000 O   0  0  0  0  0  0           0  0  0
    5.0167    0.9167    0.0000 O   0  0  0  0  0  0           0  0  0
   -3.6833   -1.7917    0.0000 O   0  0  0  0  0  0           0  0  0
    4.3125    2.9500    0.0000 C   0  0  0  0  0  0           0  0  0
    0.2667   -2.2875    0.0000 C   0  0  0  0  0  0           0  0  0
   -5.2542   -0.2958    0.0000 C   0  0  0  0  0  0           0  0  0
    2.3000   -0.1792    0.0000 C   0  0  0  0  0  0           0  0  0
    1.4917   -0.2917    0.0000 C   0  0  0  0  0  0           0  0  0
   -1.2208    0.7500    0.0000 C   0  0  0  0  0  0           0  0  0
    3.2083    2.0833    0.0000 C   0  0  0  0  0  0           0  0  0
    0.9875   -1.8958    0.0000 C   0  0  0  0  0  0           0  0  0
   -4.0000    0.3583    0.0000 C   0  0  0  0  0  0           0  0  0
   -4.8125    0.3958    0.0000 C   0  0  0  0  0  0           0  0  0
    3.5125    2.8333    0.0000 C   0  0  0  0  0  0           0  0  0
   -1.5458    0.1583    0.0000 C   0  0  0  0  0  0           0  0  0
  2  7  1  0     0  0
  3  6  1  0     0  0
  4  8  1  0     0  0
  5  1  1  0     0  0
  6  9  1  0     0  0
  7 10  1  0     0  0
  8 13  1  0     0  0
  9  1  2  0     0  0
 10 14  2  0     0  0
 11  5  1  0     0  0
 12  5  1  0     0  0
 13 15  2  0     0  0
 14 16  1  0     0  0
 15 27  1  0     0  0
 16 23  2  0     0  0
 17  3  1  0     0  0
 18  3  2  0     0  0
 19  4  1  0     0  0
 20  4  2  0     0  0
 21  2  1  0     0  0
 22  2  2  0     0  0
 23 35  1  0     0  0
 24 12  1  0     0  0
 25 11  1  0     0  0
 26 43  1  0     0  0
 27 26  2  0     0  0
 28  1  1  0     0  0
 29  9  1  0     0  0
 30 10  1  0     0  0
 31 13  1  0     0  0
 32 42  1  0     0  0
 33 39  1  0     0  0
 34 41  1  0     0  0
 35 36  1  0     0  0
 36 11  1  0     0  0
 37 12  1  0     0  0
 38 14  1  0     0  0
 39 28  2  0     0  0
 40 15  1  0     0  0
 41 40  2  0     0  0
 42 38  2  0     0  0
 43 37  1  0     0  0
 33  6  2  0     0  0
 25 24  1  0     0  0
 32  7  2  0     0  0
 34  8  2  0     0  0
M  CHG  6   2   1   3   1   4   1  17  -1  19  -1  21  -1
M  END
>  <prID>
334

>  <IDDB>
92397

>  <pIC50_HIV_Integrase>
4.823908741

>  <Q>
-2.319959948

>  <Activity_Integrase>
Inactive_Integrase

NA
NA
NA
NA
$$$$

  Accelrys05311914342D 1   1.00000     0.00000     0

 21 22  0     0  0            999 V2000
   -1.9167    0.3375    0.0000 C   0  0  0  0  0  0           0  0  0
    1.6750   -0.3542    0.0000 C   0  0  0  0  0  0           0  0  0
   -2.6417    0.7625    0.0000 C   0  0  0  0  0  0           0  0  0
    0.9542    0.7625    0.0000 N   0  0  0  0  0  0           0  0  0
    1.2000   -0.7208    0.0000 C   0  0  0  0  0  0           0  0  0
    0.2583    0.7542    0.0000 N   0  0  0  0  0  0           0  0  0
    1.6792    0.4833    0.0000 C   0  0  0  0  0  0           0  0  0
   -1.9167   -0.5000    0.0000 C   0  0  0  0  0  0           0  0  0
   -1.1875    0.7583    0.0000 C   0  0  0  0  0  0           0  0  0
   -2.6417    1.6000    0.0000 O   0  0  0  0  0  0           0  0  0
    1.2000   -1.6917    0.0000 O   0  0  0  0  0  0           0  0  0
   -0.4625    0.3333    0.0000 C   0  0  0  0  0  0           0  0  0
   -1.1917   -0.9167    0.0000 C   0  0  0  0  0  0           0  0  0
   -3.3708    0.3458    0.0000 O   0  0  0  0  0  0           0  0  0
    0.3583   -0.7208    0.0000 O   0  0  0  0  0  0           0  0  0
   -0.4625   -0.5000    0.0000 C   0  0  0  0  0  0           0  0  0
   -2.6417   -0.9167    0.0000 O   0  0  0  0  0  0           0  0  0
    2.4000   -0.7792    0.0000 C   0  0  0  0  0  0           0  0  0
    2.4000    0.9000    0.0000 C   0  0  0  0  0  0           0  0  0
    3.1292   -0.3583    0.0000 C   0  0  0  0  0  0           0  0  0
    3.1333    0.4792    0.0000 C   0  0  0  0  0  0           0  0  0
  2  7  2  0     0  0
  3  1  1  0     0  0
  4  6  2  0     0  0
  5  2  1  0     0  0
  6 12  1  0     0  0
  7  4  1  0     0  0
  8  1  2  0     0  0
  9  1  1  0     0  0
 10  3  2  0     0  0
 11  5  2  0     0  0
 12  9  2  0     0  0
 13  8  1  0     0  0
 14  3  1  0     0  0
 15  5  1  0     0  0
 16 13  2  0     0  0
 17  8  1  0     0  0
 18  2  1  0     0  0
 19  7  1  0     0  0
 20 21  1  0     0  0
 21 19  2  0     0  0
 16 12  1  0     0  0
 20 18  2  0     0  0
M  END
>  <prID>
335

>  <IDDB>
92398

>  <pIC50_HIV_Integrase>
4.435333936

>  <Q>
-1.908779319

>  <Activity_Integrase>
Inactive_Integrase

NA
NA
NA
NA
$$$$

  Accelrys05311914342D 1   1.00000     0.00000     0

 32 34  0     0  0            999 V2000
    4.2083   -0.2000    0.0000 C   0  0  0  0  0  0           0  0  0
   -4.4958    0.2417    0.0000 C   0  0  0  0  0  0           0  0  0
    1.7250   -0.2792    0.0000 C   0  0  0  0  0  0           0  0  0
   -1.5833   -0.3833    0.0000 C   0  0  0  0  0  0           0  0  0
   -4.1042    0.9708    0.0000 C   0  0  0  0  0  0           0  0  0
    4.6417   -0.9000    0.0000 C   0  0  0  0  0  0           0  0  0
   -5.3208    0.2167    0.0000 C   0  0  0  0  0  0           0  0  0
   -2.0125    0.3208    0.0000 N   0  0  0  0  0  0           0  0  0
    2.1167    0.4500    0.0000 N   0  0  0  0  0  0           0  0  0
   -3.2792    0.9958    0.0000 C   0  0  0  0  0  0           0  0  0
   -4.0583   -0.4625    0.0000 C   0  0  0  0  0  0           0  0  0
    4.5958    0.5292    0.0000 C   0  0  0  0  0  0           0  0  0
    3.3833   -0.2250    0.0000 C   0  0  0  0  0  0           0  0  0
   -0.7542   -0.3583    0.0000 C   0  0  0  0  0  0           0  0  0
    0.9000   -0.3042    0.0000 C   0  0  0  0  0  0           0  0  0
   -2.8417    0.2958    0.0000 C   0  0  0  0  0  0           0  0  0
    2.9458    0.4792    0.0000 C   0  0  0  0  0  0           0  0  0
    2.1667   -0.9792    0.0000 O   0  0  0  0  0  0           0  0  0
   -1.9708   -1.1167    0.0000 O   0  0  0  0  0  0           0  0  0
    5.4667   -0.8750    0.0000 O   0  0  0  0  0  0           0  0  0
   -5.7167   -0.5167    0.0000 O   0  0  0  0  0  0           0  0  0
    0.5125   -1.0375    0.0000 C   0  0  0  0  0  0           0  0  0
    0.4625    0.4000    0.0000 C   0  0  0  0  0  0           0  0  0
   -0.3208   -1.0583    0.0000 C   0  0  0  0  0  0           0  0  0
   -0.3625    0.3708    0.0000 C   0  0  0  0  0  0           0  0  0
    4.1625    1.2292    0.0000 C   0  0  0  0  0  0           0  0  0
   -3.2292   -0.4375    0.0000 C   0  0  0  0  0  0           0  0  0
   -4.5417    1.6750    0.0000 O   0  0  0  0  0  0           0  0  0
    4.2583   -1.6292    0.0000 O   0  0  0  0  0  0           0  0  0
   -5.7542    0.9167    0.0000 O   0  0  0  0  0  0           0  0  0
    3.3375    1.2000    0.0000 C   0  0  0  0  0  0           0  0  0
    5.4167    0.5583    0.0000 O   0  0  0  0  0  0           0  0  0
  2 11  1  0     0  0
  3  9  1  0     0  0
  4 14  1  0     0  0
  5 10  1  0     0  0
  6  1  1  0     0  0
  7  2  1  0     0  0
  8  4  1  0     0  0
  9 17  1  0     0  0
 10 16  2  0     0  0
 11 27  2  0     0  0
 12  1  2  0     0  0
 13  1  1  0     0  0
 14 25  1  0     0  0
 15  3  1  0     0  0
 16  8  1  0     0  0
 17 13  2  0     0  0
 18  3  2  0     0  0
 19  4  2  0     0  0
 20  6  2  0     0  0
 21  7  2  0     0  0
 22 15  2  0     0  0
 23 15  1  0     0  0
 24 22  1  0     0  0
 25 23  2  0     0  0
 26 12  1  0     0  0
 27 16  1  0     0  0
 28  5  1  0     0  0
 29  6  1  0     0  0
 30  7  1  0     0  0
 31 26  2  0     0  0
 32 12  1  0     0  0
 31 17  1  0     0  0
 24 14  2  0     0  0
  5  2  2  0     0  0
M  END
>  <prID>
336

>  <IDDB>
92400

>  <pIC50_HIV_Integrase>
4.413412695

>  <Q>
-3.218624308

>  <Activity_Integrase>
Inactive_Integrase

NA
NA
NA
NA
$$$$

  Accelrys05311914342D 1   1.00000     0.00000     0

 32 33  0     0  0            999 V2000
    3.1458    1.0208    0.0000 N   0  0  0  0  0  0           0  0  0
   -3.3125   -1.0167    0.0000 N   0  0  0  0  0  0           0  0  0
    3.8583    1.4292    0.0000 C   0  0  0  0  0  0           0  0  0
   -4.0250   -1.4333    0.0000 C   0  0  0  0  0  0           0  0  0
    4.5792    1.0208    0.0000 C   0  0  0  0  0  0           0  0  0
   -4.7583   -1.0125    0.0000 C   0  0  0  0  0  0           0  0  0
   -3.3125   -0.1958    0.0000 C   0  0  0  0  0  0           0  0  0
    3.1417    0.1875    0.0000 C   0  0  0  0  0  0           0  0  0
    5.2958    1.4417    0.0000 C   0  0  0  0  0  0           0  0  0
   -5.4917   -1.4167    0.0000 C   0  0  0  0  0  0           0  0  0
   -4.0250    0.2208    0.0000 N   0  0  0  0  0  0           0  0  0
    3.8625   -0.2208    0.0000 N   0  0  0  0  0  0           0  0  0
    4.5750    0.1917    0.0000 C   0  0  0  0  0  0           0  0  0
   -4.7458   -0.1833    0.0000 C   0  0  0  0  0  0           0  0  0
    6.0042    1.0292    0.0000 O   0  0  0  0  0  0           0  0  0
   -6.2042   -0.9792    0.0000 O   0  0  0  0  0  0           0  0  0
    2.4208   -0.2333    0.0000 N   0  0  0  0  0  0           0  0  0
   -2.5917    0.2167    0.0000 N   0  0  0  0  0  0           0  0  0
    3.8583    2.2542    0.0000 O   0  0  0  0  0  0           0  0  0
   -4.0167   -2.2583    0.0000 O   0  0  0  0  0  0           0  0  0
   -5.5083   -2.2417    0.0000 O   0  0  0  0  0  0           0  0  0
    5.2833    2.2750    0.0000 O   0  0  0  0  0  0           0  0  0
   -1.8750   -0.2042    0.0000 C   0  0  0  0  0  0           0  0  0
    1.7125    0.1833    0.0000 C   0  0  0  0  0  0           0  0  0
    6.0000    2.6875    0.0000 C   0  0  0  0  0  0           0  0  0
   -4.8000   -2.6625    0.0000 C   0  0  0  0  0  0           0  0  0
   -1.1542    0.2000    0.0000 C   0  0  0  0  0  0           0  0  0
    0.9958   -0.2250    0.0000 C   0  0  0  0  0  0           0  0  0
    0.2833    0.1917    0.0000 C   0  0  0  0  0  0           0  0  0
   -0.4375   -0.2167    0.0000 C   0  0  0  0  0  0           0  0  0
    6.0000    3.5167    0.0000 C   0  0  0  0  0  0           0  0  0
   -4.8083   -3.4958    0.0000 C   0  0  0  0  0  0           0  0  0
  2  7  1  0     0  0
  3  1  2  0     0  0
  4  2  2  0     0  0
  5  3  1  0     0  0
  6 14  2  0     0  0
  7 18  1  0     0  0
  8  1  1  0     0  0
  9  5  1  0     0  0
 10  6  1  0     0  0
 11  7  2  0     0  0
 12  8  2  0     0  0
 13 12  1  0     0  0
 14 11  1  0     0  0
 15  9  2  0     0  0
 16 10  2  0     0  0
 17  8  1  0     0  0
 18 23  1  0     0  0
 19  3  1  0     0  0
 20  4  1  0     0  0
 21 10  1  0     0  0
 22  9  1  0     0  0
 23 27  1  0     0  0
 24 17  1  0     0  0
 25 22  1  0     0  0
 26 21  1  0     0  0
 27 30  1  0     0  0
 28 24  1  0     0  0
 29 28  1  0     0  0
 30 29  1  0     0  0
 31 25  1  0     0  0
 32 26  1  0     0  0
 13  5  2  0     0  0
  6  4  1  0     0  0
M  END
>  <prID>
337

>  <IDDB>
92402

>  <pIC50_HIV_Integrase>
5.102372909

>  <Q>
-5.927835404

>  <Activity_Integrase>
Inactive_Integrase

NA
NA
NA
NA
$$$$

  Accelrys05311914342D 1   1.00000     0.00000     0

 28 30  0     0  0            999 V2000
    0.1375    0.6500    0.0000 C   0  0  0  0  0  0           0  0  0
   -0.2708   -0.0792    0.0000 C   0  0  3  0  0  0           0  0  0
   -1.1000   -0.0875    0.0000 C   0  0  0  0  0  0           0  0  0
    0.9667    0.6625    0.0000 C   0  0  0  0  0  0           0  0  0
    0.1542   -0.7958    0.0000 C   0  0  0  0  0  0           0  0  0
    1.3750    1.3792    0.0000 C   0  0  0  0  0  0           0  0  0
    0.9833   -2.2208    0.0000 C   0  0  0  0  0  0           0  0  0
   -1.5208    0.6208    0.0000 C   0  0  0  0  0  0           0  0  0
    1.3958   -1.5083    0.0000 C   0  0  0  0  0  0           0  0  0
    0.1542   -2.2208    0.0000 C   0  0  0  0  0  0           0  0  0
   -0.2625   -1.5083    0.0000 C   0  0  0  0  0  0           0  0  0
    0.9833   -0.7958    0.0000 C   0  0  0  0  0  0           0  0  0
   -0.2833    1.3583    0.0000 C   0  0  0  0  0  0           0  0  0
    0.9583    2.0917    0.0000 C   0  0  0  0  0  0           0  0  0
   -1.1042    1.3417    0.0000 C   0  0  0  0  0  0           0  0  0
    0.1292    2.0833    0.0000 C   0  0  0  0  0  0           0  0  0
   -0.5917    1.3708    0.0000 O   0  0  0  0  0  0           0  0  0
    1.4000   -0.0500    0.0000 Br  0  0  0  0  0  0           0  0  0
    2.1958    1.3875    0.0000 O   0  0  0  0  0  0           0  0  0
    2.2208   -1.5083    0.0000 Br  0  0  0  0  0  0           0  0  0
   -0.2667   -2.9458    0.0000 Br  0  0  0  0  0  0           0  0  0
    1.4000   -2.9458    0.0000 O   0  0  0  0  0  0           0  0  0
    1.3750    2.8167    0.0000 Br  0  0  0  0  0  0           0  0  0
   -1.5125   -0.8083    0.0000 C   0  0  0  0  0  0           0  0  0
   -2.3417    0.6208    0.0000 C   0  0  0  0  0  0           0  0  0
   -1.5208    2.0583    0.0000 C   0  0  0  0  0  0           0  0  0
   -2.3375   -0.8167    0.0000 C   0  0  0  0  0  0           0  0  0
   -2.7583   -0.0958    0.0000 C   0  0  0  0  0  0           0  0  0
  2  1  1  0     0  0
  3  2  1  0     0  0
  4  1  2  0     0  0
  5  2  1  0     0  0
  6  4  1  0     0  0
  7 10  1  0     0  0
  8  3  1  0     0  0
  9 12  1  0     0  0
 10 11  2  0     0  0
 11  5  1  0     0  0
 12  5  2  0     0  0
 13  1  1  0     0  0
 14 16  1  0     0  0
 15  8  1  0     0  0
 16 13  2  0     0  0
 17 15  2  0     0  0
 18  4  1  0     0  0
 19  6  1  0     0  0
 20  9  1  0     0  0
 21 10  1  0     0  0
 22  7  1  0     0  0
 23 14  1  0     0  0
 24  3  2  0     0  0
 25  8  2  0     0  0
 26 15  1  0     0  0
 27 24  1  0     0  0
 28 27  2  0     0  0
 14  6  2  0     0  0
  7  9  2  0     0  0
 28 25  1  0     0  0
M  END
>  <prID>
338

>  <IDDB>
92406

>  <pIC50_HIV_Integrase>
4.565431096

>  <Q>
-0.090188204

>  <Activity_Integrase>
Inactive_Integrase

NA
NA
NA
NA
$$$$

  Accelrys05311914342D 1   1.00000     0.00000     0

 22 23  0     0  0            999 V2000
    0.4333    0.1000    0.0000 C   0  0  0  0  0  0           0  0  0
   -0.4333    0.1167    0.0000 C   0  0  0  0  0  0           0  0  0
    1.1417    0.5167    0.0000 C   0  0  0  0  0  0           0  0  0
   -1.1417    0.5333    0.0000 C   0  0  0  0  0  0           0  0  0
    0.4333   -0.7250    0.0000 C   0  0  0  0  0  0           0  0  0
   -0.4458   -0.7083    0.0000 C   0  0  0  0  0  0           0  0  0
    1.8583    0.1042    0.0000 C   0  0  0  0  0  0           0  0  0
   -1.8625    0.1333    0.0000 C   0  0  0  0  0  0           0  0  0
    1.1417    1.3417    0.0000 C   0  0  0  0  0  0           0  0  0
   -1.1250    1.3625    0.0000 C   0  0  0  0  0  0           0  0  0
    1.8625   -0.7250    0.0000 C   0  0  0  0  0  0           0  0  0
   -1.8750   -0.6875    0.0000 C   0  0  0  0  0  0           0  0  0
    1.1458   -1.1375    0.0000 C   0  0  0  0  0  0           0  0  0
   -1.1667   -1.1083    0.0000 C   0  0  0  0  0  0           0  0  0
    0.4250    1.7500    0.0000 O   0  0  0  0  0  0           0  0  0
   -0.4083    1.7625    0.0000 O   0  0  0  0  0  0           0  0  0
    2.5792   -1.1375    0.0000 N   0  0  0  0  0  0           0  0  0
   -2.5917   -1.0875    0.0000 N   0  0  0  0  0  0           0  0  0
   -1.8375    1.7833    0.0000 O   0  0  0  0  0  0           0  0  0
    1.8583    1.7542    0.0000 O   0  0  0  0  0  0           0  0  0
    1.1458   -1.9625    0.0000 O   0  0  0  0  0  0           0  0  0
   -1.1833   -1.9375    0.0000 O   0  0  0  0  0  0           0  0  0
  2  1  1  0     0  0
  3  1  1  0     0  0
  4  2  2  0     0  0
  5  1  2  0     0  0
  6  2  1  0     0  0
  7  3  2  0     0  0
  8  4  1  0     0  0
  9  3  1  0     0  0
 10  4  1  0     0  0
 11 13  2  0     0  0
 12 14  1  0     0  0
 13  5  1  0     0  0
 14  6  2  0     0  0
 15  9  2  0     0  0
 16 10  2  0     0  0
 17 11  1  0     0  0
 18 12  1  0     0  0
 19 10  1  0     0  0
 20  9  1  0     0  0
 21 13  1  0     0  0
 22 14  1  0     0  0
 11  7  1  0     0  0
 12  8  2  0     0  0
M  END
>  <prID>
339

>  <IDDB>
92407

>  <pIC50_HIV_Integrase>
3.631527162

>  <Q>
-4.906306904

>  <Activity_Integrase>
Inactive_Integrase

NA
NA
NA
NA
$$$$

  Accelrys05311914342D 1   1.00000     0.00000     0

 28 32  0     0  0            999 V2000
    0.8167   -0.0083    0.0000 C   0  0  3  0  0  0           0  0  0
   -0.8292    0.0083    0.0000 C   0  0  3  0  0  0           0  0  0
    1.4083   -0.5833    0.0000 C   0  0  0  0  0  0           0  0  0
   -1.4167    0.5875    0.0000 C   0  0  0  0  0  0           0  0  0
    1.9833    0.0083    0.0000 C   0  0  0  0  0  0           0  0  0
   -1.9958    0.0000    0.0000 C   0  0  0  0  0  0           0  0  0
   -1.4042   -0.5792    0.0000 C   0  0  0  0  0  0           0  0  0
    1.3917    0.5833    0.0000 C   0  0  0  0  0  0           0  0  0
    0.4167    0.7125    0.0000 S   0  0  0  0  0  0           0  0  0
   -0.4250   -0.7083    0.0000 S   0  0  0  0  0  0           0  0  0
    0.4000   -0.7167    0.0000 C   0  0  0  0  0  0           0  0  0
   -0.4083    0.7208    0.0000 C   0  0  0  0  0  0           0  0  0
   -1.4208    1.4125    0.0000 C   0  0  0  0  0  0           0  0  0
    1.4208   -1.4083    0.0000 C   0  0  0  0  0  0           0  0  0
    1.3833    1.4125    0.0000 O   0  0  0  0  0  0           0  0  0
   -1.4125   -1.4000    0.0000 O   0  0  0  0  0  0           0  0  0
    2.8083    0.0125    0.0000 O   0  0  0  0  0  0           0  0  0
   -2.8208    0.0000    0.0000 O   0  0  0  0  0  0           0  0  0
    0.7125   -1.8292    0.0000 C   0  0  0  0  0  0           0  0  0
   -0.7083    1.8250    0.0000 C   0  0  0  0  0  0           0  0  0
   -2.1375    1.8167    0.0000 C   0  0  0  0  0  0           0  0  0
    2.1375   -1.8042    0.0000 C   0  0  0  0  0  0           0  0  0
    0.7208   -2.6542    0.0000 C   0  0  0  0  0  0           0  0  0
    2.1542   -2.6292    0.0000 C   0  0  0  0  0  0           0  0  0
   -0.7167    2.6500    0.0000 C   0  0  0  0  0  0           0  0  0
   -2.1458    2.6375    0.0000 C   0  0  0  0  0  0           0  0  0
    1.4417   -3.0583    0.0000 C   0  0  0  0  0  0           0  0  0
   -1.4333    3.0625    0.0000 C   0  0  0  0  0  0           0  0  0
  2 12  1  0     0  0
  3  1  1  0     0  0
  4  2  1  0     0  0
  5  8  1  0     0  0
  6  7  1  0     0  0
  7  2  1  0     0  0
  8  1  1  0     0  0
  9  1  1  0     0  0
 10 11  1  0     0  0
 11  1  1  0     0  0
 12  9  1  0     0  0
 13  4  1  0     0  0
 14  3  1  0     0  0
 15  8  2  0     0  0
 16  7  2  0     0  0
 17  5  1  0     0  0
 18  6  1  0     0  0
 19 14  2  0     0  0
 20 13  2  0     0  0
 21 13  1  0     0  0
 22 14  1  0     0  0
 23 19  1  0     0  0
 24 22  2  0     0  0
 25 20  1  0     0  0
 26 21  2  0     0  0
 27 24  1  0     0  0
 28 26  1  0     0  0
  2 10  1  0     0  0
  5  3  2  0     0  0
  6  4  2  0     0  0
 27 23  2  0     0  0
 28 25  2  0     0  0
M  END
>  <prID>
340

>  <IDDB>
92409

>  <pIC50_HIV_Integrase>
4.261219442

>  <Q>
1.389128005

>  <Activity_Integrase>
Inactive_Integrase

NA
NA
NA
NA
$$$$

  Accelrys05311914342D 1   1.00000     0.00000     0

 25 28  0     0  0            999 V2000
    0.1167   -0.0542    0.0000 C   0  0  3  0  0  0           0  0  0
   -1.3292   -0.0583    0.0000 C   0  0  0  0  0  0           0  0  0
    1.3708   -0.0500    0.0000 C   0  0  0  0  0  0           0  0  0
   -1.3292    0.7792    0.0000 C   0  0  0  0  0  0           0  0  0
    1.3708   -0.7708    0.0000 C   0  0  0  0  0  0           0  0  0
   -0.6167    1.2000    0.0000 C   0  0  3  0  0  0           0  0  0
    0.7458   -1.1333    0.0000 C   0  0  3  0  0  0           0  0  0
    0.1125    0.7792    0.0000 C   0  0  0  0  0  0           0  0  0
    0.1167   -0.7750    0.0000 C   0  0  0  0  0  0           0  0  0
   -2.0500   -0.4667    0.0000 C   0  0  0  0  0  0           0  0  0
    1.9833    0.3083    0.0000 C   0  0  0  0  0  0           0  0  0
   -2.0458    1.1875    0.0000 C   0  0  0  0  0  0           0  0  0
    1.9917   -1.1250    0.0000 C   0  0  0  0  0  0           0  0  0
   -2.7625    0.7792    0.0000 C   0  0  0  0  0  0           0  0  0
    2.6125   -0.7667    0.0000 C   0  0  0  0  0  0           0  0  0
   -2.7625   -0.0542    0.0000 C   0  0  0  0  0  0           0  0  0
    2.6083   -0.0417    0.0000 C   0  0  0  0  0  0           0  0  0
   -3.4833    1.1917    0.0000 N   0  0  0  0  0  0           0  0  0
    3.2333   -1.1208    0.0000 N   0  0  0  0  0  0           0  0  0
   -3.4833   -0.4583    0.0000 O   0  0  0  0  0  0           0  0  0
    3.3208    0.3292    0.0000 O   0  0  0  0  0  0           0  0  0
    0.1167   -1.4875    0.0000 C   0  0  0  0  0  0           0  0  0
    1.3750   -1.4875    0.0000 C   0  0  0  0  0  0           0  0  0
   -1.4000    1.7000    0.0000 C   0  0  0  0  0  0           0  0  0
    0.1375    1.6458    0.0000 C   0  0  0  0  0  0           0  0  0
  2  1  1  0     0  0
  3  1  1  0     0  0
  4  2  1  0     0  0
  5  3  2  0     0  0
  6  8  1  0     0  0
  7  9  1  0     0  0
  8  1  1  0     0  0
  9  1  1  0     0  0
 10  2  2  0     0  0
 11  3  1  0     0  0
 12  4  2  0     0  0
 13  5  1  0     0  0
 14 16  2  0     0  0
 15 17  1  0     0  0
 16 10  1  0     0  0
 17 11  2  0     0  0
 18 14  1  0     0  0
 19 15  1  0     0  0
 20 16  1  0     0  0
 21 17  1  0     0  0
 22  7  1  0     0  0
 23  7  1  0     0  0
 24  6  1  0     0  0
 25  6  1  0     0  0
  7  5  1  0     0  0
  6  4  1  0     0  0
 15 13  2  0     0  0
 14 12  1  0     0  0
M  END
>  <prID>
341

>  <IDDB>
92644

>  <pIC50_HIV_Integrase>
4.48148606

>  <Q>
-4.149215668

>  <Activity_Integrase>
Inactive_Integrase

NA
NA
NA
NA
$$$$

  Accelrys05311914342D 1   1.00000     0.00000     0

 31 34  0     0  0            999 V2000
    0.1292   -0.0583    0.0000 C   0  0  3  0  0  0           0  0  0
   -3.5000    1.1958    0.0000 S   0  0  3  0  0  0           0  0  0
    3.2792   -1.1375    0.0000 S   0  0  3  0  0  0           0  0  0
   -1.3333   -0.0625    0.0000 C   0  0  0  0  0  0           0  0  0
    1.4000   -0.0583    0.0000 C   0  0  0  0  0  0           0  0  0
   -2.7792    0.7833    0.0000 C   0  0  0  0  0  0           0  0  0
    2.6500   -0.7792    0.0000 C   0  0  0  0  0  0           0  0  0
   -1.3333    0.7833    0.0000 C   0  0  0  0  0  0           0  0  0
    1.4000   -0.7833    0.0000 C   0  0  0  0  0  0           0  0  0
   -0.6125    1.2042    0.0000 C   0  0  3  0  0  0           0  0  0
    0.7667   -1.1500    0.0000 C   0  0  3  0  0  0           0  0  0
    0.1208    0.7833    0.0000 C   0  0  0  0  0  0           0  0  0
    0.1292   -0.7875    0.0000 C   0  0  0  0  0  0           0  0  0
   -2.0500    1.1875    0.0000 C   0  0  0  0  0  0           0  0  0
    2.0250   -1.1417    0.0000 C   0  0  0  0  0  0           0  0  0
   -2.0542   -0.4792    0.0000 C   0  0  0  0  0  0           0  0  0
    2.0208    0.3000    0.0000 C   0  0  0  0  0  0           0  0  0
   -2.7792   -0.0583    0.0000 C   0  0  0  0  0  0           0  0  0
    2.6458   -0.0500    0.0000 C   0  0  0  0  0  0           0  0  0
   -4.1833    1.7833    0.0000 O   0  0  0  0  0  0           0  0  0
   -4.0625    0.3542    0.0000 O   0  0  0  0  0  0           0  0  0
    3.9625   -1.5833    0.0000 O   0  0  0  0  0  0           0  0  0
    4.0000   -0.4958    0.0000 O   0  0  0  0  0  0           0  0  0
   -2.7833    1.9125    0.0000 O   0  0  0  0  0  0           0  0  0
    2.7458   -1.8000    0.0000 O   0  0  0  0  0  0           0  0  0
   -3.5000   -0.4750    0.0000 O   0  0  0  0  0  0           0  0  0
    3.3667    0.3208    0.0000 O   0  0  0  0  0  0           0  0  0
   -1.4042    1.7167    0.0000 C   0  0  0  0  0  0           0  0  0
    0.1458    1.6583    0.0000 C   0  0  0  0  0  0           0  0  0
    0.1250   -1.5083    0.0000 C   0  0  0  0  0  0           0  0  0
    1.4000   -1.5083    0.0000 C   0  0  0  0  0  0           0  0  0
  2  6  1  0     0  0
  3  7  1  0     0  0
  4  1  1  0     0  0
  5  1  1  0     0  0
  6 18  2  0     0  0
  7 19  1  0     0  0
  8  4  1  0     0  0
  9  5  2  0     0  0
 10 12  1  0     0  0
 11 13  1  0     0  0
 12  1  1  0     0  0
 13  1  1  0     0  0
 14  8  2  0     0  0
 15  9  1  0     0  0
 16  4  2  0     0  0
 17  5  1  0     0  0
 18 16  1  0     0  0
 19 17  2  0     0  0
 20  2  2  0     0  0
 21  2  2  0     0  0
 22  3  2  0     0  0
 23  3  2  0     0  0
 24  2  1  0     0  0
 25  3  1  0     0  0
 26 18  1  0     0  0
 27 19  1  0     0  0
 28 10  1  0     0  0
 29 10  1  0     0  0
 30 11  1  0     0  0
 31 11  1  0     0  0
 11  9  1  0     0  0
 10  8  1  0     0  0
  7 15  2  0     0  0
  6 14  1  0     0  0
M  END
>  <prID>
342

>  <IDDB>
92648

>  <pIC50_HIV_Integrase>
4.161150909

>  <Q>
-4.333844481

>  <Activity_Integrase>
Inactive_Integrase

NA
NA
NA
NA
$$$$

  Accelrys05311914342D 1   1.00000     0.00000     0

 27 30  0     0  0            999 V2000
    0.1250   -0.0583    0.0000 C   0  0  3  0  0  0           0  0  0
   -1.3375   -0.0625    0.0000 C   0  0  0  0  0  0           0  0  0
    1.3958   -0.0583    0.0000 C   0  0  0  0  0  0           0  0  0
   -1.3375    0.7833    0.0000 C   0  0  0  0  0  0           0  0  0
    1.3958   -0.7833    0.0000 C   0  0  0  0  0  0           0  0  0
   -0.6167    1.2042    0.0000 C   0  0  3  0  0  0           0  0  0
    0.7625   -1.1500    0.0000 C   0  0  3  0  0  0           0  0  0
    0.1167    0.7833    0.0000 C   0  0  0  0  0  0           0  0  0
    0.1292   -0.7875    0.0000 C   0  0  0  0  0  0           0  0  0
   -2.0583   -0.4792    0.0000 C   0  0  0  0  0  0           0  0  0
    2.0167    0.3000    0.0000 C   0  0  0  0  0  0           0  0  0
   -2.0542    1.1875    0.0000 C   0  0  0  0  0  0           0  0  0
    2.0250   -1.1417    0.0000 C   0  0  0  0  0  0           0  0  0
   -2.7833    0.7833    0.0000 C   0  0  0  0  0  0           0  0  0
    2.6458   -0.7792    0.0000 C   0  0  0  0  0  0           0  0  0
   -2.7833   -0.0583    0.0000 C   0  0  0  0  0  0           0  0  0
    2.6417   -0.0500    0.0000 C   0  0  0  0  0  0           0  0  0
   -3.5042    1.1958    0.0000 C   0  0  0  0  0  0           0  0  0
    3.2792   -1.1375    0.0000 C   0  0  0  0  0  0           0  0  0
   -3.5042    2.0208    0.0000 O   0  0  0  0  0  0           0  0  0
    3.2750   -1.8625    0.0000 O   0  0  0  0  0  0           0  0  0
   -3.5042   -0.4750    0.0000 O   0  0  0  0  0  0           0  0  0
    3.3625    0.3208    0.0000 O   0  0  0  0  0  0           0  0  0
   -1.4083    1.7167    0.0000 C   0  0  0  0  0  0           0  0  0
    0.1417    1.6583    0.0000 C   0  0  0  0  0  0           0  0  0
    0.1208   -1.5083    0.0000 C   0  0  0  0  0  0           0  0  0
    1.4000   -1.5083    0.0000 C   0  0  0  0  0  0           0  0  0
  2  1  1  0     0  0
  3  1  1  0     0  0
  4  2  1  0     0  0
  5  3  2  0     0  0
  6  8  1  0     0  0
  7  9  1  0     0  0
  8  1  1  0     0  0
  9  1  1  0     0  0
 10  2  2  0     0  0
 11  3  1  0     0  0
 12  4  2  0     0  0
 13  5  1  0     0  0
 14 16  2  0     0  0
 15 17  1  0     0  0
 16 10  1  0     0  0
 17 11  2  0     0  0
 18 14  1  0     0  0
 19 15  1  0     0  0
 20 18  2  0     0  0
 21 19  2  0     0  0
 22 16  1  0     0  0
 23 17  1  0     0  0
 24  6  1  0     0  0
 25  6  1  0     0  0
 26  7  1  0     0  0
 27  7  1  0     0  0
  7  5  1  0     0  0
  6  4  1  0     0  0
 15 13  2  0     0  0
 14 12  1  0     0  0
M  END
>  <prID>
343

>  <IDDB>
92649

>  <pIC50_HIV_Integrase>
5.22184875

>  <Q>
-1.145607078

>  <Activity_Integrase>
Inactive_Integrase

NA
NA
NA
NA
$$$$

  Accelrys05311914342D 1   1.00000     0.00000     0

 23 26  0     0  0            999 V2000
    0.1042   -0.0458    0.0000 C   0  0  3  0  0  0           0  0  0
   -1.3583   -0.0542    0.0000 C   0  0  0  0  0  0           0  0  0
    1.3750   -0.0458    0.0000 C   0  0  0  0  0  0           0  0  0
   -1.3583    0.7917    0.0000 C   0  0  0  0  0  0           0  0  0
    1.3792   -0.7750    0.0000 C   0  0  0  0  0  0           0  0  0
   -0.6375    1.2125    0.0000 C   0  0  3  0  0  0           0  0  0
    0.7417   -1.1375    0.0000 C   0  0  3  0  0  0           0  0  0
    0.1000    0.7917    0.0000 C   0  0  0  0  0  0           0  0  0
    0.1083   -0.7792    0.0000 C   0  0  0  0  0  0           0  0  0
   -2.0750    1.2000    0.0000 C   0  0  0  0  0  0           0  0  0
    2.0042   -1.1375    0.0000 C   0  0  0  0  0  0           0  0  0
   -2.0792   -0.4708    0.0000 C   0  0  0  0  0  0           0  0  0
    2.0000    0.3125    0.0000 C   0  0  0  0  0  0           0  0  0
   -2.8000   -0.0500    0.0000 C   0  0  0  0  0  0           0  0  0
    2.6208   -0.0375    0.0000 C   0  0  0  0  0  0           0  0  0
   -2.8000    0.7875    0.0000 C   0  0  0  0  0  0           0  0  0
    2.6250   -0.7708    0.0000 C   0  0  0  0  0  0           0  0  0
    0.1042   -1.5000    0.0000 C   0  0  0  0  0  0           0  0  0
    1.3792   -1.5000    0.0000 C   0  0  0  0  0  0           0  0  0
   -1.4292    1.7208    0.0000 C   0  0  0  0  0  0           0  0  0
    0.1250    1.6667    0.0000 C   0  0  0  0  0  0           0  0  0
   -3.5250   -0.4625    0.0000 O   0  0  0  0  0  0           0  0  0
    3.3458    0.3333    0.0000 O   0  0  0  0  0  0           0  0  0
  2  1  1  0     0  0
  3  1  1  0     0  0
  4  2  1  0     0  0
  5  3  2  0     0  0
  6  8  1  0     0  0
  7  9  1  0     0  0
  8  1  1  0     0  0
  9  1  1  0     0  0
 10  4  2  0     0  0
 11  5  1  0     0  0
 12  2  2  0     0  0
 13  3  1  0     0  0
 14 12  1  0     0  0
 15 13  2  0     0  0
 16 14  2  0     0  0
 17 15  1  0     0  0
 18  7  1  0     0  0
 19  7  1  0     0  0
 20  6  1  0     0  0
 21  6  1  0     0  0
 22 14  1  0     0  0
 23 15  1  0     0  0
  7  5  1  0     0  0
  6  4  1  0     0  0
 17 11  2  0     0  0
 16 10  1  0     0  0
M  END
>  <prID>
344

>  <IDDB>
92650

>  <pIC50_HIV_Integrase>
3.63638802

>  <Q>
-1.309934712

>  <Activity_Integrase>
Inactive_Integrase

NA
NA
NA
NA
$$$$

  Accelrys05311914342D 1   1.00000     0.00000     0

 25 28  0     0  0            999 V2000
    0.1167   -0.0500    0.0000 C   0  0  3  0  0  0           0  0  0
   -1.3333   -0.0583    0.0000 C   0  0  0  0  0  0           0  0  0
    1.3708   -0.0500    0.0000 C   0  0  0  0  0  0           0  0  0
   -1.3333    0.7833    0.0000 C   0  0  0  0  0  0           0  0  0
    1.3708   -0.7708    0.0000 C   0  0  0  0  0  0           0  0  0
   -0.6208    1.2000    0.0000 C   0  0  3  0  0  0           0  0  0
    0.7458   -1.1333    0.0000 C   0  0  3  0  0  0           0  0  0
    0.1125    0.7833    0.0000 C   0  0  0  0  0  0           0  0  0
    0.1167   -0.7750    0.0000 C   0  0  0  0  0  0           0  0  0
   -2.0417   -0.4708    0.0000 C   0  0  0  0  0  0           0  0  0
    1.9875    0.3083    0.0000 C   0  0  0  0  0  0           0  0  0
   -2.0417    1.1833    0.0000 C   0  0  0  0  0  0           0  0  0
    1.9958   -1.1250    0.0000 C   0  0  0  0  0  0           0  0  0
   -2.7625    0.7792    0.0000 C   0  0  0  0  0  0           0  0  0
    2.6083   -0.7667    0.0000 C   0  0  0  0  0  0           0  0  0
   -2.7625   -0.0542    0.0000 C   0  0  0  0  0  0           0  0  0
    2.6083   -0.0417    0.0000 C   0  0  0  0  0  0           0  0  0
   -3.4792    1.1917    0.0000 Br  0  0  0  0  0  0           0  0  0
    3.2167   -1.1167    0.0000 Br  0  0  0  0  0  0           0  0  0
   -3.4833   -0.4625    0.0000 O   0  0  0  0  0  0           0  0  0
    3.3208    0.3250    0.0000 O   0  0  0  0  0  0           0  0  0
    0.1167   -1.4875    0.0000 C   0  0  0  0  0  0           0  0  0
    1.3750   -1.4875    0.0000 C   0  0  0  0  0  0           0  0  0
   -1.4042    1.7042    0.0000 C   0  0  0  0  0  0           0  0  0
    0.1333    1.6458    0.0000 C   0  0  0  0  0  0           0  0  0
  2  1  1  0     0  0
  3  1  1  0     0  0
  4  2  1  0     0  0
  5  3  2  0     0  0
  6  8  1  0     0  0
  7  9  1  0     0  0
  8  1  1  0     0  0
  9  1  1  0     0  0
 10  2  2  0     0  0
 11  3  1  0     0  0
 12  4  2  0     0  0
 13  5  1  0     0  0
 14 16  2  0     0  0
 15 17  1  0     0  0
 16 10  1  0     0  0
 17 11  2  0     0  0
 18 14  1  0     0  0
 19 15  1  0     0  0
 20 16  1  0     0  0
 21 17  1  0     0  0
 22  7  1  0     0  0
 23  7  1  0     0  0
 24  6  1  0     0  0
 25  6  1  0     0  0
  7  5  1  0     0  0
  6  4  1  0     0  0
 15 13  2  0     0  0
 14 12  1  0     0  0
M  END
>  <prID>
345

>  <IDDB>
92651

>  <pIC50_HIV_Integrase>
5

>  <Q>
-1.321448417

>  <Activity_Integrase>
Inactive_Integrase

NA
NA
NA
NA
$$$$

  Accelrys05311914342D 1   1.00000     0.00000     0

 25 28  0     0  0            999 V2000
    0.1167   -0.0500    0.0000 C   0  0  3  0  0  0           0  0  0
   -1.3333   -0.0583    0.0000 C   0  0  0  0  0  0           0  0  0
    1.3708   -0.0500    0.0000 C   0  0  0  0  0  0           0  0  0
   -1.3333    0.7833    0.0000 C   0  0  0  0  0  0           0  0  0
    1.3708   -0.7708    0.0000 C   0  0  0  0  0  0           0  0  0
   -0.6208    1.2000    0.0000 C   0  0  3  0  0  0           0  0  0
    0.7458   -1.1333    0.0000 C   0  0  3  0  0  0           0  0  0
    0.1125    0.7833    0.0000 C   0  0  0  0  0  0           0  0  0
    0.1167   -0.7750    0.0000 C   0  0  0  0  0  0           0  0  0
   -2.0417   -0.4708    0.0000 C   0  0  0  0  0  0           0  0  0
    1.9875    0.3083    0.0000 C   0  0  0  0  0  0           0  0  0
   -2.0417    1.1833    0.0000 C   0  0  0  0  0  0           0  0  0
    1.9958   -1.1250    0.0000 C   0  0  0  0  0  0           0  0  0
   -2.7625    0.7792    0.0000 C   0  0  0  0  0  0           0  0  0
    2.6083   -0.7667    0.0000 C   0  0  0  0  0  0           0  0  0
   -2.7625   -0.0542    0.0000 C   0  0  0  0  0  0           0  0  0
    2.6083   -0.0417    0.0000 C   0  0  0  0  0  0           0  0  0
   -3.4792    1.1917    0.0000 I   0  0  0  0  0  0           0  0  0
    3.2167   -1.1167    0.0000 I   0  0  0  0  0  0           0  0  0
   -3.4833   -0.4625    0.0000 O   0  0  0  0  0  0           0  0  0
    3.3208    0.3250    0.0000 O   0  0  0  0  0  0           0  0  0
    0.1167   -1.4875    0.0000 C   0  0  0  0  0  0           0  0  0
    1.3750   -1.4875    0.0000 C   0  0  0  0  0  0           0  0  0
   -1.4042    1.7042    0.0000 C   0  0  0  0  0  0           0  0  0
    0.1333    1.6458    0.0000 C   0  0  0  0  0  0           0  0  0
  2  1  1  0     0  0
  3  1  1  0     0  0
  4  2  1  0     0  0
  5  3  2  0     0  0
  6  8  1  0     0  0
  7  9  1  0     0  0
  8  1  1  0     0  0
  9  1  1  0     0  0
 10  2  2  0     0  0
 11  3  1  0     0  0
 12  4  2  0     0  0
 13  5  1  0     0  0
 14 16  2  0     0  0
 15 17  1  0     0  0
 16 10  1  0     0  0
 17 11  2  0     0  0
 18 14  1  0     0  0
 19 15  1  0     0  0
 20 16  1  0     0  0
 21 17  1  0     0  0
 22  7  1  0     0  0
 23  7  1  0     0  0
 24  6  1  0     0  0
 25  6  1  0     0  0
  7  5  1  0     0  0
  6  4  1  0     0  0
 15 13  2  0     0  0
 14 12  1  0     0  0
M  END
>  <prID>
346

>  <IDDB>
92652

>  <pIC50_HIV_Integrase>
5.505845406

>  <Q>
1.591809214

>  <Activity_Integrase>
Inactive_Integrase

NA
NA
NA
NA
$$$$

  Accelrys05311914342D 1   1.00000     0.00000     0

 29 32  0     0  0            999 V2000
    0.1167   -0.0375    0.0000 C   0  0  3  0  0  0           0  0  0
   -1.3708   -0.0458    0.0000 C   0  0  0  0  0  0           0  0  0
    1.4125   -0.0375    0.0000 C   0  0  0  0  0  0           0  0  0
   -1.3708    0.8125    0.0000 C   0  0  0  0  0  0           0  0  0
    1.4125   -0.7792    0.0000 C   0  0  0  0  0  0           0  0  0
    2.0458    0.3250    0.0000 C   0  0  0  0  0  0           0  0  0
   -2.0917   -0.4750    0.0000 C   0  0  0  0  0  0           0  0  0
   -2.0875    1.2208    0.0000 C   0  0  0  0  0  0           0  0  0
    2.0542   -1.1417    0.0000 C   0  0  0  0  0  0           0  0  0
    2.6750   -0.0333    0.0000 C   0  0  0  0  0  0           0  0  0
   -2.8250   -0.0375    0.0000 C   0  0  0  0  0  0           0  0  0
   -2.8250    0.8125    0.0000 C   0  0  0  0  0  0           0  0  0
    2.6750   -0.7750    0.0000 C   0  0  0  0  0  0           0  0  0
   -0.6375    1.2375    0.0000 C   0  0  3  0  0  0           0  0  0
    0.7667   -1.1458    0.0000 C   0  0  3  0  0  0           0  0  0
    0.1125    0.8125    0.0000 C   0  0  0  0  0  0           0  0  0
    0.1167   -0.7792    0.0000 C   0  0  0  0  0  0           0  0  0
    2.0375    1.0542    0.0000 Br  0  0  0  0  0  0           0  0  0
   -2.0958    2.0625    0.0000 Br  0  0  0  0  0  0           0  0  0
   -2.1000   -1.3167    0.0000 Br  0  0  0  0  0  0           0  0  0
    2.0458   -1.8792    0.0000 Br  0  0  0  0  0  0           0  0  0
    3.4042    0.3417    0.0000 O   0  0  0  0  0  0           0  0  0
   -3.5625   -0.4667    0.0000 O   0  0  0  0  0  0           0  0  0
   -3.5625    1.2292    0.0000 O   0  0  0  0  0  0           0  0  0
    3.3000   -1.1292    0.0000 O   0  0  0  0  0  0           0  0  0
   -1.0208    1.9125    0.0000 C   0  0  0  0  0  0           0  0  0
   -0.1417    1.8958    0.0000 C   0  0  0  0  0  0           0  0  0
    0.3583   -1.7542    0.0000 C   0  0  0  0  0  0           0  0  0
    1.1083   -1.8167    0.0000 C   0  0  0  0  0  0           0  0  0
  2  1  1  0     0  0
  3  1  1  0     0  0
  4  2  1  0     0  0
  5  3  2  0     0  0
  6  3  1  0     0  0
  7  2  2  0     0  0
  8  4  2  0     0  0
  9  5  1  0     0  0
 10  6  2  0     0  0
 11  7  1  0     0  0
 12  8  1  0     0  0
 13  9  2  0     0  0
 14 16  1  0     0  0
 15 17  1  0     0  0
 16  1  1  0     0  0
 17  1  1  0     0  0
 18  6  1  0     0  0
 19  8  1  0     0  0
 20  7  1  0     0  0
 21  9  1  0     0  0
 22 10  1  0     0  0
 23 11  1  0     0  0
 24 12  1  0     0  0
 25 13  1  0     0  0
 26 14  1  0     0  0
 27 14  1  0     0  0
 28 15  1  0     0  0
 29 15  1  0     0  0
 15  5  1  0     0  0
 14  4  1  0     0  0
 13 10  1  0     0  0
 12 11  2  0     0  0
M  END
>  <prID>
347

>  <IDDB>
92653

>  <pIC50_HIV_Integrase>
5.2867443695

>  <Q>
-3.0121889

>  <Activity_Integrase>
Inactive_Integrase

NA
NA
NA
NA
$$$$

  Accelrys05311914342D 1   1.00000     0.00000     0

 29 32  0     0  0            999 V2000
   -0.0750    0.2417    0.0000 C   0  0  3  0  0  0           0  0  0
   -1.5208    0.2333    0.0000 C   0  0  0  0  0  0           0  0  0
    1.1958    0.2417    0.0000 C   0  0  0  0  0  0           0  0  0
   -2.2250   -0.1833    0.0000 C   0  0  0  0  0  0           0  0  0
    2.4250   -0.4750    0.0000 C   0  0  0  0  0  0           0  0  0
   -2.2333   -0.9875    0.0000 N   0  3  0  0  0  0           0  0  0
    3.1000   -0.6500    0.0000 N   0  3  0  0  0  0           0  0  0
    1.1958   -0.4792    0.0000 C   0  0  0  0  0  0           0  0  0
   -1.5208    1.0708    0.0000 C   0  0  0  0  0  0           0  0  0
    0.5625   -0.8375    0.0000 C   0  0  3  0  0  0           0  0  0
   -0.0708   -0.4792    0.0000 C   0  0  0  0  0  0           0  0  0
   -0.8042    1.4833    0.0000 C   0  0  3  0  0  0           0  0  0
   -0.0792    1.0708    0.0000 C   0  0  0  0  0  0           0  0  0
    1.8167   -0.8333    0.0000 C   0  0  0  0  0  0           0  0  0
    1.8125    0.5958    0.0000 C   0  0  0  0  0  0           0  0  0
    2.4208    0.2458    0.0000 C   0  0  0  0  0  0           0  0  0
   -2.2208    1.4708    0.0000 C   0  0  0  0  0  0           0  0  0
   -2.9417    0.2417    0.0000 C   0  0  0  0  0  0           0  0  0
   -3.0333   -1.4292    0.0000 O   0  5  0  0  0  0           0  0  0
   -1.3583   -1.4042    0.0000 O   0  0  0  0  0  0           0  0  0
    3.4000   -1.5542    0.0000 O   0  5  0  0  0  0           0  0  0
    4.0042   -0.4000    0.0000 O   0  0  0  0  0  0           0  0  0
   -2.9417    1.0708    0.0000 C   0  0  0  0  0  0           0  0  0
    3.1375    0.6125    0.0000 O   0  0  0  0  0  0           0  0  0
   -3.6625   -0.1750    0.0000 O   0  0  0  0  0  0           0  0  0
    0.9000   -1.4917    0.0000 C   0  0  0  0  0  0           0  0  0
    0.1667   -1.4292    0.0000 C   0  0  0  0  0  0           0  0  0
   -0.3208    2.1292    0.0000 C   0  0  0  0  0  0           0  0  0
   -1.1833    2.1458    0.0000 C   0  0  0  0  0  0           0  0  0
  2  1  1  0     0  0
  3  1  1  0     0  0
  4  2  2  0     0  0
  5 16  1  0     0  0
  6  4  1  0     0  0
  7  5  1  0     0  0
  8  3  2  0     0  0
  9  2  1  0     0  0
 10 11  1  0     0  0
 11  1  1  0     0  0
 12 13  1  0     0  0
 13  1  1  0     0  0
 14  8  1  0     0  0
 15  3  1  0     0  0
 16 15  2  0     0  0
 17  9  2  0     0  0
 18  4  1  0     0  0
 19  6  1  0     0  0
 20  6  2  0     0  0
 21  7  1  0     0  0
 22  7  2  0     0  0
 23 18  2  0     0  0
 24 16  1  0     0  0
 25 18  1  0     0  0
 26 10  1  0     0  0
 27 10  1  0     0  0
 28 12  1  0     0  0
 29 12  1  0     0  0
 10  8  1  0     0  0
 12  9  1  0     0  0
  5 14  2  0     0  0
 23 17  1  0     0  0
M  CHG  4   6   1   7   1  19  -1  21  -1
M  END
>  <prID>
348

>  <IDDB>
92654

>  <pIC50_HIV_Integrase>
4.137862065

>  <Q>
-1.639619162

>  <Activity_Integrase>
Inactive_Integrase

NA
NA
NA
NA
$$$$

  Accelrys05311914342D 1   1.00000     0.00000     0

 32 35  0     0  0            999 V2000
   -1.8625   -0.3167    0.0000 C   0  0  0  0  0  0           0  0  0
    0.2917    0.1083    0.0000 C   0  0  3  0  0  0           0  0  0
   -1.1625    0.1000    0.0000 C   0  0  0  0  0  0           0  0  0
   -2.5792    0.9417    0.0000 C   0  0  0  0  0  0           0  0  0
   -2.5792    0.1083    0.0000 C   0  0  0  0  0  0           0  0  0
    1.5583    0.1083    0.0000 C   0  0  0  0  0  0           0  0  0
   -1.1625    0.9417    0.0000 C   0  0  0  0  0  0           0  0  0
   -1.8708   -1.1167    0.0000 N   0  3  0  0  0  0           0  0  0
    2.7875   -0.6042    0.0000 C   0  0  0  0  0  0           0  0  0
   -3.2417    1.1708    0.0000 N   0  3  0  0  0  0           0  0  0
    3.4625   -0.7792    0.0000 N   0  3  0  0  0  0           0  0  0
    1.5583   -0.6083    0.0000 C   0  0  0  0  0  0           0  0  0
   -0.4417    1.3542    0.0000 C   0  0  3  0  0  0           0  0  0
    0.9250   -0.9708    0.0000 C   0  0  3  0  0  0           0  0  0
   -1.8625    1.3417    0.0000 C   0  0  0  0  0  0           0  0  0
    0.2833    0.9417    0.0000 C   0  0  0  0  0  0           0  0  0
    0.2958   -0.6125    0.0000 C   0  0  0  0  0  0           0  0  0
    2.1792   -0.9625    0.0000 C   0  0  0  0  0  0           0  0  0
    2.1750    0.4625    0.0000 C   0  0  0  0  0  0           0  0  0
    2.7875    0.1167    0.0000 C   0  0  0  0  0  0           0  0  0
   -0.9958   -1.5375    0.0000 O   0  5  0  0  0  0           0  0  0
   -2.6708   -1.5583    0.0000 O   0  0  0  0  0  0           0  0  0
   -3.3042    2.0833    0.0000 O   0  5  0  0  0  0           0  0  0
   -3.9875    0.5542    0.0000 O   0  0  0  0  0  0           0  0  0
    3.7583   -1.6833    0.0000 O   0  5  0  0  0  0           0  0  0
    4.3667   -0.5292    0.0000 O   0  0  0  0  0  0           0  0  0
   -3.3000   -0.3042    0.0000 O   0  0  0  0  0  0           0  0  0
    3.5000    0.4833    0.0000 O   0  0  0  0  0  0           0  0  0
   -0.8208    2.0167    0.0000 C   0  0  0  0  0  0           0  0  0
    0.0417    2.0000    0.0000 C   0  0  0  0  0  0           0  0  0
    0.5292   -1.5583    0.0000 C   0  0  0  0  0  0           0  0  0
    1.2583   -1.6208    0.0000 C   0  0  0  0  0  0           0  0  0
  2  3  1  0     0  0
  3  1  2  0     0  0
  4  5  2  0     0  0
  5  1  1  0     0  0
  6  2  1  0     0  0
  7  3  1  0     0  0
  8  1  1  0     0  0
  9 20  1  0     0  0
 10  4  1  0     0  0
 11  9  1  0     0  0
 12  6  2  0     0  0
 13  7  1  0     0  0
 14 17  1  0     0  0
 15  4  1  0     0  0
 16  2  1  0     0  0
 17  2  1  0     0  0
 18 12  1  0     0  0
 19  6  1  0     0  0
 20 19  2  0     0  0
 21  8  1  0     0  0
 22  8  2  0     0  0
 23 10  1  0     0  0
 24 10  2  0     0  0
 25 11  1  0     0  0
 26 11  2  0     0  0
 27  5  1  0     0  0
 28 20  1  0     0  0
 29 13  1  0     0  0
 30 13  1  0     0  0
 31 14  1  0     0  0
 32 14  1  0     0  0
 15  7  2  0     0  0
 13 16  1  0     0  0
 14 12  1  0     0  0
  9 18  2  0     0  0
M  CHG  6   8   1  10   1  11   1  21  -1  23  -1  25  -1
M  END
>  <prID>
349

>  <IDDB>
92655

>  <pIC50_HIV_Integrase>
4.4649810665

>  <Q>
-1.809247646

>  <Activity_Integrase>
Inactive_Integrase

NA
NA
NA
NA
$$$$

  Accelrys05311914342D 1   1.00000     0.00000     0

 31 34  0     0  0            999 V2000
    0.3667   -0.5208    0.0000 C   0  0  3  0  0  0           0  0  0
    1.6417   -0.5208    0.0000 C   0  0  0  0  0  0           0  0  0
   -1.0958   -0.5292    0.0000 C   0  0  0  0  0  0           0  0  0
    2.2750   -0.1667    0.0000 C   0  0  0  0  0  0           0  0  0
   -1.0958    0.3167    0.0000 C   0  0  0  0  0  0           0  0  0
    1.6417   -1.2542    0.0000 C   0  0  0  0  0  0           0  0  0
   -0.3750    0.7333    0.0000 C   0  0  3  0  0  0           0  0  0
    0.3625    0.3167    0.0000 C   0  0  0  0  0  0           0  0  0
    1.0042   -1.6167    0.0000 C   0  0  3  0  0  0           0  0  0
    0.3708   -1.2583    0.0000 C   0  0  0  0  0  0           0  0  0
   -1.8083   -0.9500    0.0000 C   0  0  0  0  0  0           0  0  0
   -2.5333    0.3167    0.0000 C   0  0  0  0  0  0           0  0  0
   -1.8083    0.7208    0.0000 C   0  0  0  0  0  0           0  0  0
    2.3125    0.6417    0.0000 N   0  0  0  0  0  0           0  0  0
    2.3458    1.4208    0.0000 C   0  0  0  0  0  0           0  0  0
   -3.9667    1.3333    0.0000 C   0  0  0  0  0  0           0  0  0
   -3.3208    0.8250    0.0000 N   0  0  0  0  0  0           0  0  0
   -2.5333   -0.5208    0.0000 C   0  0  0  0  0  0           0  0  0
    2.2792   -1.6125    0.0000 C   0  0  0  0  0  0           0  0  0
    2.8875   -0.5167    0.0000 C   0  0  0  0  0  0           0  0  0
    1.7583    2.0000    0.0000 O   0  0  0  0  0  0           0  0  0
   -3.6458    2.0917    0.0000 O   0  0  0  0  0  0           0  0  0
    2.8875   -1.2500    0.0000 C   0  0  0  0  0  0           0  0  0
   -4.7292    1.0292    0.0000 N   0  0  0  0  0  0           0  0  0
    3.0583    1.8417    0.0000 N   0  0  0  0  0  0           0  0  0
   -3.2625   -0.9417    0.0000 O   0  0  0  0  0  0           0  0  0
    3.6125   -0.1500    0.0000 O   0  0  0  0  0  0           0  0  0
    0.1167    1.3833    0.0000 C   0  0  0  0  0  0           0  0  0
   -0.7625    1.4000    0.0000 C   0  0  0  0  0  0           0  0  0
    1.3500   -2.2792    0.0000 C   0  0  0  0  0  0           0  0  0
    0.6125   -2.2125    0.0000 C   0  0  0  0  0  0           0  0  0
  2  1  1  0     0  0
  3  1  1  0     0  0
  4  2  1  0     0  0
  5  3  1  0     0  0
  6  2  2  0     0  0
  7  8  1  0     0  0
  8  1  1  0     0  0
  9 10  1  0     0  0
 10  1  1  0     0  0
 11  3  2  0     0  0
 12 18  2  0     0  0
 13  5  2  0     0  0
 14  4  1  0     0  0
 15 14  1  0     0  0
 16 17  1  0     0  0
 17 12  1  0     0  0
 18 11  1  0     0  0
 19  6  1  0     0  0
 20  4  2  0     0  0
 21 15  2  0     0  0
 22 16  2  0     0  0
 23 20  1  0     0  0
 24 16  1  0     0  0
 25 15  1  0     0  0
 26 18  1  0     0  0
 27 20  1  0     0  0
 28  7  1  0     0  0
 29  7  1  0     0  0
 30  9  1  0     0  0
 31  9  1  0     0  0
  7  5  1  0     0  0
  9  6  1  0     0  0
 12 13  1  0     0  0
 23 19  2  0     0  0
M  END
>  <prID>
350

>  <IDDB>
92657

>  <pIC50_HIV_Integrase>
3.455931956

>  <Q>
-6.079642698

>  <Activity_Integrase>
Inactive_Integrase

NA
NA
NA
NA
$$$$

  Accelrys05311914342D 1   1.00000     0.00000     0

 41 44  0     0  0            999 V2000
    0.1583   -0.1125    0.0000 C   0  0  3  0  0  0           0  0  0
   -1.2542   -0.1167    0.0000 C   0  0  0  0  0  0           0  0  0
    1.3875   -0.1125    0.0000 C   0  0  0  0  0  0           0  0  0
   -4.2333   -0.9875    0.0000 S   0  0  3  0  0  0           0  0  0
    3.9167    0.8417    0.0000 S   0  0  3  0  0  0           0  0  0
   -4.2417    1.6208    0.0000 S   0  0  3  0  0  0           0  0  0
    4.2750   -1.2292    0.0000 S   0  0  3  0  0  0           0  0  0
   -1.2542    0.7000    0.0000 C   0  0  0  0  0  0           0  0  0
    1.3875   -0.8167    0.0000 C   0  0  0  0  0  0           0  0  0
   -2.6417   -0.1167    0.0000 C   0  0  0  0  0  0           0  0  0
    2.5958   -0.1042    0.0000 C   0  0  0  0  0  0           0  0  0
   -2.6417    0.7000    0.0000 C   0  0  0  0  0  0           0  0  0
    2.5958   -0.8167    0.0000 C   0  0  0  0  0  0           0  0  0
   -0.5583    1.1000    0.0000 C   0  0  3  0  0  0           0  0  0
    0.7792   -1.1708    0.0000 C   0  0  3  0  0  0           0  0  0
    0.1542    0.7000    0.0000 C   0  0  0  0  0  0           0  0  0
    0.1625   -0.8167    0.0000 C   0  0  0  0  0  0           0  0  0
   -1.9417   -0.5250    0.0000 C   0  0  0  0  0  0           0  0  0
    2.0000    0.2333    0.0000 C   0  0  0  0  0  0           0  0  0
    2.0042   -1.1667    0.0000 C   0  0  0  0  0  0           0  0  0
   -1.9417    1.0875    0.0000 C   0  0  0  0  0  0           0  0  0
    3.2500   -0.9875    0.0000 O   0  0  0  0  0  0           0  0  0
    3.2042    0.2542    0.0000 O   0  0  0  0  0  0           0  0  0
   -3.3417    1.0958    0.0000 O   0  0  0  0  0  0           0  0  0
   -3.3417   -0.5042    0.0000 O   0  0  0  0  0  0           0  0  0
   -3.9333   -1.7250    0.0000 O   0  0  0  0  0  0           0  0  0
   -4.5417   -0.2500    0.0000 O   0  0  0  0  0  0           0  0  0
    3.2375    1.5292    0.0000 O   0  0  0  0  0  0           0  0  0
    4.5042    0.2292    0.0000 O   0  0  0  0  0  0           0  0  0
   -3.7875    2.4083    0.0000 O   0  0  0  0  0  0           0  0  0
   -4.7042    0.8333    0.0000 O   0  0  0  0  0  0           0  0  0
    4.4583   -0.3167    0.0000 O   0  0  0  0  0  0           0  0  0
    4.1167   -2.0958    0.0000 O   0  0  0  0  0  0           0  0  0
    4.5375    1.3792    0.0000 O   0  0  0  0  0  0           0  0  0
    5.0458   -1.3958    0.0000 O   0  0  0  0  0  0           0  0  0
   -5.0292    2.0833    0.0000 O   0  0  0  0  0  0           0  0  0
   -4.9667   -1.2917    0.0000 O   0  0  0  0  0  0           0  0  0
    0.3958   -1.7458    0.0000 C   0  0  0  0  0  0           0  0  0
    1.1083   -1.8042    0.0000 C   0  0  0  0  0  0           0  0  0
   -0.9292    1.7458    0.0000 C   0  0  0  0  0  0           0  0  0
   -0.0833    1.7292    0.0000 C   0  0  0  0  0  0           0  0  0
  2  1  1  0     0  0
  3  1  1  0     0  0
  4 25  1  0     0  0
  5 23  1  0     0  0
  6 24  1  0     0  0
  7 22  1  0     0  0
  8  2  1  0     0  0
  9  3  2  0     0  0
 10 18  1  0     0  0
 11 19  2  0     0  0
 12 10  2  0     0  0
 13 11  1  0     0  0
 14 16  1  0     0  0
 15 17  1  0     0  0
 16  1  1  0     0  0
 17  1  1  0     0  0
 18  2  2  0     0  0
 19  3  1  0     0  0
 20  9  1  0     0  0
 21  8  2  0     0  0
 22 13  1  0     0  0
 23 11  1  0     0  0
 24 12  1  0     0  0
 25 10  1  0     0  0
 26  4  2  0     0  0
 27  4  2  0     0  0
 28  5  2  0     0  0
 29  5  2  0     0  0
 30  6  2  0     0  0
 31  6  2  0     0  0
 32  7  2  0     0  0
 33  7  2  0     0  0
 34  5  1  0     0  0
 35  7  1  0     0  0
 36  6  1  0     0  0
 37  4  1  0     0  0
 38 15  1  0     0  0
 39 15  1  0     0  0
 40 14  1  0     0  0
 41 14  1  0     0  0
 15  9  1  0     0  0
 14  8  1  0     0  0
 13 20  2  0     0  0
 12 21  1  0     0  0
M  END
>  <prID>
351

>  <IDDB>
92658

>  <pIC50_HIV_Integrase>
5.698970004

>  <Q>
-8.00234267

>  <Activity_Integrase>
Inactive_Integrase

NA
NA
NA
NA
$$$$

  Accelrys05311914342D 1   1.00000     0.00000     0

 31 34  0     0  0            999 V2000
    0.1583   -0.0500    0.0000 C   0  0  3  0  0  0           0  0  0
   -1.2417   -0.0542    0.0000 C   0  0  0  0  0  0           0  0  0
    1.3792   -0.0500    0.0000 C   0  0  0  0  0  0           0  0  0
   -4.2083   -0.9167    0.0000 S   0  0  3  0  0  0           0  0  0
    3.9000    0.9000    0.0000 S   0  0  3  0  0  0           0  0  0
   -1.2417    0.7625    0.0000 C   0  0  0  0  0  0           0  0  0
    1.3792   -0.7500    0.0000 C   0  0  0  0  0  0           0  0  0
   -0.5500    1.1625    0.0000 C   0  0  3  0  0  0           0  0  0
    0.7750   -1.1000    0.0000 C   0  0  3  0  0  0           0  0  0
    0.1583    0.7625    0.0000 C   0  0  0  0  0  0           0  0  0
    0.1625   -0.7500    0.0000 C   0  0  0  0  0  0           0  0  0
   -3.3208   -0.4375    0.0000 O   0  0  0  0  0  0           0  0  0
    3.1875    0.3208    0.0000 O   0  0  0  0  0  0           0  0  0
   -1.9292    1.1458    0.0000 C   0  0  0  0  0  0           0  0  0
    2.0000   -1.0958    0.0000 C   0  0  0  0  0  0           0  0  0
   -1.9333   -0.4583    0.0000 C   0  0  0  0  0  0           0  0  0
    1.9917    0.3000    0.0000 C   0  0  0  0  0  0           0  0  0
   -4.5208   -0.1875    0.0000 O   0  0  0  0  0  0           0  0  0
   -3.9083   -1.6542    0.0000 O   0  0  0  0  0  0           0  0  0
    3.2250    1.5833    0.0000 O   0  0  0  0  0  0           0  0  0
    4.4875    0.2958    0.0000 O   0  0  0  0  0  0           0  0  0
   -2.6250   -0.0500    0.0000 C   0  0  0  0  0  0           0  0  0
    2.5833   -0.0417    0.0000 C   0  0  0  0  0  0           0  0  0
   -4.9417   -1.2167    0.0000 O   0  0  0  0  0  0           0  0  0
    4.5208    1.4333    0.0000 O   0  0  0  0  0  0           0  0  0
    2.5833   -0.7458    0.0000 C   0  0  0  0  0  0           0  0  0
   -2.6250    0.7625    0.0000 C   0  0  0  0  0  0           0  0  0
   -0.9208    1.8000    0.0000 C   0  0  0  0  0  0           0  0  0
   -0.0833    1.7833    0.0000 C   0  0  0  0  0  0           0  0  0
    0.4000   -1.6750    0.0000 C   0  0  0  0  0  0           0  0  0
    1.1042   -1.7333    0.0000 C   0  0  0  0  0  0           0  0  0
  2  1  1  0     0  0
  3  1  1  0     0  0
  4 12  1  0     0  0
  5 13  1  0     0  0
  6  2  1  0     0  0
  7  3  2  0     0  0
  8 10  1  0     0  0
  9 11  1  0     0  0
 10  1  1  0     0  0
 11  1  1  0     0  0
 12 22  1  0     0  0
 13 23  1  0     0  0
 14  6  2  0     0  0
 15  7  1  0     0  0
 16  2  2  0     0  0
 17  3  1  0     0  0
 18  4  2  0     0  0
 19  4  2  0     0  0
 20  5  2  0     0  0
 21  5  2  0     0  0
 22 16  1  0     0  0
 23 17  2  0     0  0
 24  4  1  0     0  0
 25  5  1  0     0  0
 26 23  1  0     0  0
 27 22  2  0     0  0
 28  8  1  0     0  0
 29  8  1  0     0  0
 30  9  1  0     0  0
 31  9  1  0     0  0
  9  7  1  0     0  0
  8  6  1  0     0  0
 26 15  2  0     0  0
 27 14  1  0     0  0
M  END
>  <prID>
352

>  <IDDB>
92659

>  <pIC50_HIV_Integrase>
4.594212497

>  <Q>
-3.845723883

>  <Activity_Integrase>
Inactive_Integrase

NA
NA
NA
NA
$$$$

  Accelrys05311914342D 1   1.00000     0.00000     0

 45 48  0     0  0            999 V2000
    0.1583   -0.1042    0.0000 C   0  0  3  0  0  0           0  0  0
   -2.6417   -0.1042    0.0000 C   0  0  0  0  0  0           0  0  0
    2.5917   -0.0958    0.0000 C   0  0  0  0  0  0           0  0  0
   -2.6417    0.7083    0.0000 C   0  0  0  0  0  0           0  0  0
    2.5917   -0.8042    0.0000 C   0  0  0  0  0  0           0  0  0
   -1.2583   -0.1083    0.0000 C   0  0  0  0  0  0           0  0  0
    1.3833   -0.1042    0.0000 C   0  0  0  0  0  0           0  0  0
   -1.2542    0.7083    0.0000 C   0  0  0  0  0  0           0  0  0
    1.3875   -0.8125    0.0000 C   0  0  0  0  0  0           0  0  0
   -1.9458   -0.5167    0.0000 C   0  0  0  0  0  0           0  0  0
    1.9958    0.2417    0.0000 C   0  0  0  0  0  0           0  0  0
    2.0000   -1.1583    0.0000 C   0  0  0  0  0  0           0  0  0
   -1.9417    1.0958    0.0000 C   0  0  0  0  0  0           0  0  0
   -4.2333   -0.9792    0.0000 S   0  0  3  0  0  0           0  0  0
    3.9167    0.8542    0.0000 S   0  0  3  0  0  0           0  0  0
   -4.2417    1.6292    0.0000 S   0  0  3  0  0  0           0  0  0
    4.2708   -1.2167    0.0000 S   0  0  3  0  0  0           0  0  0
   -0.5583    1.1125    0.0000 C   0  0  3  0  0  0           0  0  0
    0.7750   -1.1625    0.0000 C   0  0  3  0  0  0           0  0  0
    0.1542    0.7083    0.0000 C   0  0  0  0  0  0           0  0  0
    0.1583   -0.8083    0.0000 C   0  0  0  0  0  0           0  0  0
    3.2458   -0.9792    0.0000 O   0  0  0  0  0  0           0  0  0
    3.2000    0.2625    0.0000 O   0  0  0  0  0  0           0  0  0
   -3.3417    1.1042    0.0000 O   0  0  0  0  0  0           0  0  0
   -3.3417   -0.4958    0.0000 O   0  0  0  0  0  0           0  0  0
   -3.9333   -1.7167    0.0000 O   0  0  0  0  0  0           0  0  0
   -4.5458   -0.2417    0.0000 O   0  0  0  0  0  0           0  0  0
    3.2375    1.5375    0.0000 O   0  0  0  0  0  0           0  0  0
    4.5042    0.2417    0.0000 O   0  0  0  0  0  0           0  0  0
   -3.7917    2.4208    0.0000 O   0  0  0  0  0  0           0  0  0
   -4.7042    0.8417    0.0000 O   0  0  0  0  0  0           0  0  0
    4.4583   -0.3083    0.0000 O   0  0  0  0  0  0           0  0  0
    4.1167   -2.0875    0.0000 O   0  0  0  0  0  0           0  0  0
    2.0000   -1.8583    0.0000 Br  0  0  0  0  0  0           0  0  0
   -1.9500    1.9250    0.0000 Br  0  0  0  0  0  0           0  0  0
    1.9875    0.9292    0.0000 Br  0  0  0  0  0  0           0  0  0
   -1.9542   -1.3375    0.0000 Br  0  0  0  0  0  0           0  0  0
    4.5375    1.3875    0.0000 O   0  0  0  0  0  0           0  0  0
    5.0417   -1.3875    0.0000 O   0  0  0  0  0  0           0  0  0
   -5.0333    2.0875    0.0000 O   0  0  0  0  0  0           0  0  0
   -4.9708   -1.2833    0.0000 O   0  0  0  0  0  0           0  0  0
   -0.9333    1.7542    0.0000 C   0  0  0  0  0  0           0  0  0
   -0.0833    1.7417    0.0000 C   0  0  0  0  0  0           0  0  0
    0.3958   -1.7375    0.0000 C   0  0  0  0  0  0           0  0  0
    1.1042   -1.7958    0.0000 C   0  0  0  0  0  0           0  0  0
  2 10  1  0     0  0
  3 11  2  0     0  0
  4  2  2  0     0  0
  5  3  1  0     0  0
  6  1  1  0     0  0
  7  1  1  0     0  0
  8  6  1  0     0  0
  9  7  2  0     0  0
 10  6  2  0     0  0
 11  7  1  0     0  0
 12  9  1  0     0  0
 13  8  2  0     0  0
 14 25  1  0     0  0
 15 23  1  0     0  0
 16 24  1  0     0  0
 17 22  1  0     0  0
 18 20  1  0     0  0
 19 21  1  0     0  0
 20  1  1  0     0  0
 21  1  1  0     0  0
 22  5  1  0     0  0
 23  3  1  0     0  0
 24  4  1  0     0  0
 25  2  1  0     0  0
 26 14  2  0     0  0
 27 14  2  0     0  0
 28 15  2  0     0  0
 29 15  2  0     0  0
 30 16  2  0     0  0
 31 16  2  0     0  0
 32 17  2  0     0  0
 33 17  2  0     0  0
 34 12  1  0     0  0
 35 13  1  0     0  0
 36 11  1  0     0  0
 37 10  1  0     0  0
 38 15  1  0     0  0
 39 17  1  0     0  0
 40 16  1  0     0  0
 41 14  1  0     0  0
 42 18  1  0     0  0
 43 18  1  0     0  0
 44 19  1  0     0  0
 45 19  1  0     0  0
 19  9  1  0     0  0
 18  8  1  0     0  0
  5 12  2  0     0  0
  4 13  1  0     0  0
M  END
>  <prID>
353

>  <IDDB>
92660

>  <pIC50_HIV_Integrase>
5.9269359825

>  <Q>
-8.058515318

>  <Activity_Integrase>
Inactive_Integrase

NA
NA
NA
NA
$$$$

  Accelrys05311914342D 1   1.00000     0.00000     0

 25 28  0     0  0            999 V2000
   -0.2167   -0.1167    0.0000 N   0  0  3  0  0  0           0  0  0
   -0.8250    0.1833    0.0000 C   0  0  0  0  0  0           0  0  0
    0.3542    0.2625    0.0000 C   0  0  0  0  0  0           0  0  0
   -2.1708    0.8458    0.0000 C   0  0  0  0  0  0           0  0  0
    0.3125    0.9333    0.0000 N   0  0  0  0  0  0           0  0  0
   -0.8667    0.8625    0.0000 C   0  0  0  0  0  0           0  0  0
    3.7208    0.0417    0.0000 P   0  0  3  0  0  0           0  0  0
   -1.4500   -0.2375    0.0000 C   0  0  0  0  0  0           0  0  0
   -2.1208    0.1042    0.0000 C   0  0  0  0  0  0           0  0  0
   -1.5417    1.2625    0.0000 C   0  0  0  0  0  0           0  0  0
   -0.1292   -1.2292    0.0000 C   0  0  1  0  0  0           0  0  0
   -2.8417    1.1875    0.0000 C   0  0  0  0  0  0           0  0  0
   -3.4625    0.7708    0.0000 N   0  0  0  0  0  0           0  0  0
   -2.7500   -0.3167    0.0000 N   0  0  0  0  0  0           0  0  0
    0.6833   -0.9292    0.0000 C   0  0  0  0  0  0           0  0  0
    1.2417   -2.0417    0.0000 O   0  0  0  0  0  0           0  0  0
   -3.4125    0.0208    0.0000 C   0  0  0  0  0  0           0  0  0
    2.8583   -0.4417    0.0000 O   0  0  0  0  0  0           0  0  0
    4.1542   -0.7083    0.0000 O   0  0  0  0  0  0           0  0  0
    0.1833   -2.0375    0.0000 C   0  0  0  0  0  0           0  0  0
    1.4292   -1.2583    0.0000 C   0  0  2  0  0  0           0  0  0
    1.7417   -0.3958    0.0000 C   0  0  0  0  0  0           0  0  0
    4.6333    0.5625    0.0000 O   0  0  0  0  0  0           0  0  0
    3.3000    0.7917    0.0000 O   0  0  0  0  0  0           0  0  0
   -2.8833    1.9417    0.0000 N   0  0  0  0  0  0           0  0  0
  2  1  1  0     0  0
  3  1  1  0     0  0
  4  9  1  0     0  0
  5  3  2  0     0  0
  6  2  2  0     0  0
  7 18  1  0     0  0
  8  2  1  0     0  0
  9  8  2  0     0  0
 10  6  1  0     0  0
 11  1  1  1     0  0
 12  4  1  0     0  0
 13 12  2  0     0  0
 14  9  1  0     0  0
 15 11  1  0     0  0
 16 20  1  0     0  0
 17 14  2  0     0  0
 18 22  1  0     0  0
 19  7  2  0     0  0
 20 11  1  0     0  0
 21 15  1  0     0  0
 21 22  1  1     0  0
 23  7  1  0     0  0
 24  7  1  0     0  0
 25 12  1  0     0  0
  5  6  1  0     0  0
 16 21  1  0     0  0
  4 10  2  0     0  0
 13 17  1  0     0  0
M  END
>  <prID>
354

>  <IDDB>
92973

>  <pIC50_HIV_Integrase>
4.167491087

>  <Q>
-5.387912931

>  <Activity_Integrase>
Inactive_Integrase

NA
NA
NA
NA
$$$$

  Accelrys05311914342D 1   1.00000     0.00000     0

 34 37  0     0  0            999 V2000
    2.3986   -1.2833    0.0000 C   0  0  0  0  0  0           0  0  0
    2.3974   -2.1065    0.0000 C   0  0  0  0  0  0           0  0  0
    3.1164   -2.5194    0.0000 C   0  0  0  0  0  0           0  0  0
    3.1146   -0.8705    0.0000 C   0  0  0  0  0  0           0  0  0
    3.8258   -1.2797    0.0000 C   0  0  0  0  0  0           0  0  0
    3.8266   -2.1065    0.0000 C   0  0  0  0  0  0           0  0  0
    4.5377   -2.5175    0.0000 C   0  0  0  0  0  0           0  0  0
    5.2569   -2.1069    0.0000 C   0  0  0  0  0  0           0  0  0
    5.2563   -1.2811    0.0000 C   0  0  0  0  0  0           0  0  0
    4.5404   -0.8697    0.0000 C   0  0  0  0  0  0           0  0  0
    3.1125   -0.0417    0.0000 O   0  0  0  0  0  0           0  0  0
    1.6750   -2.5250    0.0000 S   0  0  3  0  0  0           0  0  0
    2.0958   -3.2458    0.0000 O   0  0  0  0  0  0           0  0  0
    1.2542   -1.8042    0.0000 O   0  0  0  0  0  0           0  0  0
    0.9542   -2.9458    0.0000 O   0  0  0  0  0  0           0  0  0
    5.9793   -2.5363    0.0000 N   0  0  0  0  0  0           0  0  0
    6.6916   -2.1275    0.0000 C   0  0  0  0  0  0           0  0  0
    7.4056   -2.5469    0.0000 N   0  0  0  0  0  0           0  0  0
    6.6948   -1.3028    0.0000 O   0  0  0  0  0  0           0  0  0
    8.1302   -2.1360    0.0000 C   0  0  0  0  0  0           0  0  0
    8.8444   -2.5514    0.0000 C   0  0  0  0  0  0           0  0  0
    8.8511   -0.9097    0.0000 C   0  0  0  0  0  0           0  0  0
    8.1414   -1.3163    0.0000 C   0  0  0  0  0  0           0  0  0
    9.5622   -1.3197    0.0000 C   0  0  0  0  0  0           0  0  0
    9.5583   -2.1437    0.0000 C   0  0  0  0  0  0           0  0  0
   10.2648   -2.5567    0.0000 C   0  0  0  0  0  0           0  0  0
   10.9798   -2.1462    0.0000 C   0  0  0  0  0  0           0  0  0
   10.9855   -1.3262    0.0000 C   0  0  0  0  0  0           0  0  0
   10.2725   -0.9094    0.0000 C   0  0  0  0  0  0           0  0  0
   10.2743   -0.0842    0.0000 O   0  0  0  0  0  0           0  0  0
   11.6955   -2.5646    0.0000 S   0  0  3  0  0  0           0  0  0
   12.1107   -1.8529    0.0000 O   0  0  0  0  0  0           0  0  0
   11.2796   -3.2787    0.0000 O   0  0  0  0  0  0           0  0  0
   12.4102   -2.9821    0.0000 O   0  0  0  0  0  0           0  0  0
 16 17  1  0     0  0
  5  4  2  0     0  0
 17 18  1  0     0  0
  8  9  1  0     0  0
 17 19  2  0     0  0
  4  1  1  0     0  0
 18 20  1  0     0  0
  9 10  2  0     0  0
 20 21  2  0     0  0
 21 25  1  0     0  0
 10  5  1  0     0  0
 24 22  1  0     0  0
 22 23  2  0     0  0
 23 20  1  0     0  0
  4 11  1  0     0  0
  2  3  1  0     0  0
 24 25  1  0     0  0
  2 12  1  0     0  0
 25 26  2  0     0  0
  5  6  1  0     0  0
 26 27  1  0     0  0
 12 13  2  0     0  0
 27 28  2  0     0  0
  3  6  2  0     0  0
 28 29  1  0     0  0
 29 24  2  0     0  0
 12 14  2  0     0  0
 29 30  1  0     0  0
  6  7  1  0     0  0
 12 15  1  0     0  0
 31 32  2  0     0  0
  1  2  2  0     0  0
 31 33  2  0     0  0
  7  8  2  0     0  0
 31 34  1  0     0  0
 27 31  1  0     0  0
  8 16  1  0     0  0
M  END
>  <prID>
355

>  <IDDB>
94678

>  <pIC50_HIV_Integrase>
5.5

>  <Q>
-4.162991115

>  <Activity_Integrase>
Inactive_Integrase

NA
NA
NA
NA
$$$$

  Accelrys05311914342D 1   1.00000     0.00000     0

 56 61  0     0  0            999 V2000
   -4.0417   -1.4625    0.0000 C   0  0  0  0  0  0           0  0  0
    4.0542   -1.4583    0.0000 C   0  0  0  0  0  0           0  0  0
   -4.7208   -1.8542    0.0000 S   0  0  3  0  0  0           0  0  0
    4.7250   -1.8458    0.0000 S   0  0  3  0  0  0           0  0  0
    4.0583   -0.6792    0.0000 C   0  0  0  0  0  0           0  0  0
   -4.0417   -0.6792    0.0000 C   0  0  0  0  0  0           0  0  0
   -4.7417   -0.2792    0.0000 N   0  0  0  0  0  0           0  0  0
    4.7500   -0.2750    0.0000 N   0  0  0  0  0  0           0  0  0
   -3.3667   -0.2875    0.0000 C   0  0  0  0  0  0           0  0  0
    3.3792   -0.2875    0.0000 C   0  0  0  0  0  0           0  0  0
    3.3792   -1.8458    0.0000 C   0  0  0  0  0  0           0  0  0
   -3.3667   -1.8542    0.0000 C   0  0  0  0  0  0           0  0  0
   -2.6958   -1.4625    0.0000 C   0  0  0  0  0  0           0  0  0
    2.7042   -1.4542    0.0000 C   0  0  0  0  0  0           0  0  0
    0.0042   -1.4625    0.0000 C   0  0  0  0  0  0           0  0  0
   -2.6917   -0.6792    0.0000 C   0  0  0  0  0  0           0  0  0
    2.7042   -0.6750    0.0000 C   0  0  0  0  0  0           0  0  0
   -5.4375    0.1208    0.0000 N   0  0  0  0  0  0           0  0  0
    5.4375    0.1333    0.0000 N   0  0  0  0  0  0           0  0  0
   -5.4500    3.3250    0.0000 C   0  0  0  0  0  0           0  0  0
    5.4292    3.3375    0.0000 C   0  0  0  0  0  0           0  0  0
    0.6792   -1.8583    0.0000 N   0  0  0  0  0  0           0  0  0
   -0.6708   -1.8583    0.0000 N   0  0  0  0  0  0           0  0  0
    4.7167   -2.7542    0.0000 O   0  0  0  0  0  0           0  0  0
    5.3125   -1.0708    0.0000 O   0  0  0  0  0  0           0  0  0
   -5.3750   -1.2167    0.0000 O   0  0  0  0  0  0           0  0  0
   -4.7208   -2.7542    0.0000 O   0  0  0  0  0  0           0  0  0
   -2.0167   -0.2958    0.0000 C   0  0  0  0  0  0           0  0  0
    2.0250   -0.2875    0.0000 C   0  0  0  0  0  0           0  0  0
   -2.0208   -1.8583    0.0000 C   0  0  0  0  0  0           0  0  0
    2.0333   -1.8500    0.0000 C   0  0  0  0  0  0           0  0  0
    5.4333    2.5375    0.0000 C   0  0  0  0  0  0           0  0  0
   -5.4417    2.5208    0.0000 C   0  0  0  0  0  0           0  0  0
    1.3542   -1.4583    0.0000 C   0  0  0  0  0  0           0  0  0
   -1.3458   -1.4708    0.0000 C   0  0  0  0  0  0           0  0  0
    0.0000   -0.6792    0.0000 O   0  0  0  0  0  0           0  0  0
    5.6083   -2.0458    0.0000 O   0  0  0  0  0  0           0  0  0
   -5.6417   -2.1000    0.0000 O   0  0  0  0  0  0           0  0  0
   -4.7583    3.7292    0.0000 O   0  0  0  0  0  0           0  0  0
    4.7333    3.7417    0.0000 O   0  0  0  0  0  0           0  0  0
    5.4375    0.9333    0.0000 C   0  0  0  0  0  0           0  0  0
   -5.4417    0.9208    0.0000 C   0  0  0  0  0  0           0  0  0
    4.7375    2.1333    0.0000 C   0  0  0  0  0  0           0  0  0
   -4.7500    2.1208    0.0000 C   0  0  0  0  0  0           0  0  0
   -6.1333    2.1208    0.0000 C   0  0  0  0  0  0           0  0  0
    6.1292    2.1333    0.0000 C   0  0  0  0  0  0           0  0  0
   -3.3792    0.4958    0.0000 O   0  0  0  0  0  0           0  0  0
    3.3750    0.5000    0.0000 O   0  0  0  0  0  0           0  0  0
    1.3500   -0.6792    0.0000 C   0  0  0  0  0  0           0  0  0
   -1.3417   -0.6875    0.0000 C   0  0  0  0  0  0           0  0  0
    6.1208    3.7417    0.0000 O   0  0  0  0  0  0           0  0  0
   -6.1417    3.7250    0.0000 O   0  0  0  0  0  0           0  0  0
    6.1292    1.3375    0.0000 C   0  0  0  0  0  0           0  0  0
    4.7375    1.3292    0.0000 C   0  0  0  0  0  0           0  0  0
   -4.7458    1.3250    0.0000 C   0  0  0  0  0  0           0  0  0
   -6.1333    1.3167    0.0000 C   0  0  0  0  0  0           0  0  0
  2 11  1  0     0  0
  3  1  1  0     0  0
  4  2  1  0     0  0
  5 10  1  0     0  0
  6  1  2  0     0  0
  7  6  1  0     0  0
  8  5  1  0     0  0
  9  6  1  0     0  0
 10 17  2  0     0  0
 11 14  2  0     0  0
 12  1  1  0     0  0
 13 12  2  0     0  0
 14 31  1  0     0  0
 15 23  1  0     0  0
 16  9  2  0     0  0
 17 29  1  0     0  0
 18  7  2  0     0  0
 19  8  2  0     0  0
 20 33  1  0     0  0
 21 32  1  0     0  0
 22 15  1  0     0  0
 23 35  1  0     0  0
 24  4  2  0     0  0
 25  4  2  0     0  0
 26  3  2  0     0  0
 27  3  2  0     0  0
 28 16  1  0     0  0
 29 49  2  0     0  0
 30 13  1  0     0  0
 31 34  2  0     0  0
 32 43  1  0     0  0
 33 45  2  0     0  0
 34 22  1  0     0  0
 35 30  2  0     0  0
 36 15  2  0     0  0
 37  4  1  0     0  0
 38  3  1  0     0  0
 39 20  2  0     0  0
 40 21  2  0     0  0
 41 19  1  0     0  0
 42 18  1  0     0  0
 43 54  2  0     0  0
 44 55  2  0     0  0
 45 56  1  0     0  0
 46 53  1  0     0  0
 47  9  1  0     0  0
 48 10  1  0     0  0
 49 34  1  0     0  0
 50 28  2  0     0  0
 51 21  1  0     0  0
 52 20  1  0     0  0
 53 41  2  0     0  0
 54 41  1  0     0  0
 55 42  1  0     0  0
 56 42  2  0     0  0
 13 16  1  0     0  0
 35 50  1  0     0  0
 33 44  1  0     0  0
 17 14  1  0     0  0
  5  2  2  0     0  0
 32 46  2  0     0  0
M  END
>  <prID>
356

>  <IDDB>
94679

>  <pIC50_HIV_Integrase>
6.301029996

>  <Q>
-6.106893634

>  <Activity_Integrase>
Active_Integrase

NA
NA
NA
NA
$$$$

  Accelrys05311914342D 1   1.00000     0.00000     0

 60 65  0     0  0            999 V2000
   -3.6417   -1.6375    0.0000 C   0  0  0  0  0  0           0  0  0
    3.6500   -1.6333    0.0000 C   0  0  0  0  0  0           0  0  0
   -4.2500   -1.9875    0.0000 S   0  0  3  0  0  0           0  0  0
    4.2542   -1.9833    0.0000 S   0  0  3  0  0  0           0  0  0
    3.6542   -0.9292    0.0000 C   0  0  0  0  0  0           0  0  0
   -3.6417   -0.9333    0.0000 C   0  0  0  0  0  0           0  0  0
   -4.2667   -0.5750    0.0000 N   0  0  0  0  0  0           0  0  0
    4.2750   -0.5667    0.0000 N   0  0  0  0  0  0           0  0  0
   -3.0333   -0.5792    0.0000 C   0  0  0  0  0  0           0  0  0
    3.0417   -0.5792    0.0000 C   0  0  0  0  0  0           0  0  0
    3.0375   -1.9792    0.0000 C   0  0  0  0  0  0           0  0  0
   -3.0333   -1.9875    0.0000 C   0  0  0  0  0  0           0  0  0
   -2.4250   -1.6375    0.0000 C   0  0  0  0  0  0           0  0  0
    2.4375   -1.6292    0.0000 C   0  0  0  0  0  0           0  0  0
    0.0042   -1.6375    0.0000 C   0  0  0  0  0  0           0  0  0
   -2.4208   -0.9333    0.0000 C   0  0  0  0  0  0           0  0  0
    2.4375   -0.9250    0.0000 C   0  0  0  0  0  0           0  0  0
   -4.8917   -0.2125    0.0000 N   0  0  0  0  0  0           0  0  0
    4.9000   -0.2000    0.0000 N   0  0  0  0  0  0           0  0  0
    0.6125   -1.9917    0.0000 N   0  0  0  0  0  0           0  0  0
   -0.6042   -1.9958    0.0000 N   0  0  0  0  0  0           0  0  0
   -4.2500   -2.8000    0.0000 O   0  0  0  0  0  0           0  0  0
    4.2458   -2.8000    0.0000 O   0  0  0  0  0  0           0  0  0
    4.7792   -1.2833    0.0000 O   0  0  0  0  0  0           0  0  0
   -4.8417   -1.4167    0.0000 O   0  0  0  0  0  0           0  0  0
   -1.8167   -0.5833    0.0000 C   0  0  0  0  0  0           0  0  0
    1.8250   -0.5792    0.0000 C   0  0  0  0  0  0           0  0  0
   -5.5292    3.0375    0.0000 C   0  0  0  0  0  0           0  0  0
    5.5083    3.0500    0.0000 C   0  0  0  0  0  0           0  0  0
   -1.8208   -1.9917    0.0000 C   0  0  0  0  0  0           0  0  0
    1.8292   -1.9833    0.0000 C   0  0  0  0  0  0           0  0  0
    4.8875    2.6833    0.0000 C   0  0  0  0  0  0           0  0  0
   -4.9042    2.6750    0.0000 C   0  0  0  0  0  0           0  0  0
    1.2167   -1.6333    0.0000 C   0  0  0  0  0  0           0  0  0
   -1.2125   -1.6417    0.0000 C   0  0  0  0  0  0           0  0  0
    0.0000   -0.9333    0.0000 O   0  0  0  0  0  0           0  0  0
    5.0458   -2.1583    0.0000 O   0  0  0  0  0  0           0  0  0
   -5.0792   -2.2125    0.0000 O   0  0  0  0  0  0           0  0  0
   -5.5333    3.7583    0.0000 C   0  0  0  0  0  0           0  0  0
    5.5042    3.7708    0.0000 C   0  0  0  0  0  0           0  0  0
   -4.9125    4.1167    0.0000 O   0  0  0  0  0  0           0  0  0
    4.8792    4.1292    0.0000 O   0  0  0  0  0  0           0  0  0
   -4.8958    0.5083    0.0000 C   0  0  0  0  0  0           0  0  0
    4.8958    0.5208    0.0000 C   0  0  0  0  0  0           0  0  0
    3.0375    0.1292    0.0000 O   0  0  0  0  0  0           0  0  0
   -3.0417    0.1250    0.0000 O   0  0  0  0  0  0           0  0  0
   -4.9000    1.9500    0.0000 C   0  0  0  0  0  0           0  0  0
    4.8917    1.9625    0.0000 C   0  0  0  0  0  0           0  0  0
    1.2167   -0.9292    0.0000 C   0  0  0  0  0  0           0  0  0
   -1.2083   -0.9375    0.0000 C   0  0  0  0  0  0           0  0  0
   -5.5208    0.8625    0.0000 C   0  0  0  0  0  0           0  0  0
    5.5167    0.8833    0.0000 C   0  0  0  0  0  0           0  0  0
    4.2667    0.8750    0.0000 C   0  0  0  0  0  0           0  0  0
   -4.2708    0.8708    0.0000 C   0  0  0  0  0  0           0  0  0
   -5.5208    1.5875    0.0000 C   0  0  0  0  0  0           0  0  0
    5.5167    1.6000    0.0000 C   0  0  0  0  0  0           0  0  0
    4.2667    1.6000    0.0000 C   0  0  0  0  0  0           0  0  0
   -4.2750    1.5917    0.0000 C   0  0  0  0  0  0           0  0  0
    6.1292    4.1333    0.0000 C   0  0  0  0  0  0           0  0  0
   -6.1417    4.0875    0.0000 C   0  0  0  0  0  0           0  0  0
  2 11  1  0     0  0
  3  1  1  0     0  0
  4  2  1  0     0  0
  5 10  1  0     0  0
  6  1  2  0     0  0
  7  6  1  0     0  0
  8  5  1  0     0  0
  9  6  1  0     0  0
 10 17  2  0     0  0
 11 14  2  0     0  0
 12  1  1  0     0  0
 13 12  2  0     0  0
 14 31  1  0     0  0
 15 21  1  0     0  0
 16  9  2  0     0  0
 17 27  1  0     0  0
 18  7  2  0     0  0
 19  8  2  0     0  0
 20 15  1  0     0  0
 21 35  1  0     0  0
 22  3  2  0     0  0
 23  4  2  0     0  0
 24  4  2  0     0  0
 25  3  2  0     0  0
 26 16  1  0     0  0
 27 49  2  0     0  0
 28 33  2  0     0  0
 29 32  2  0     0  0
 30 13  1  0     0  0
 31 34  2  0     0  0
 32 48  1  0     0  0
 33 47  1  0     0  0
 34 20  1  0     0  0
 35 30  2  0     0  0
 36 15  2  0     0  0
 37  4  1  0     0  0
 38  3  1  0     0  0
 39 28  1  0     0  0
 40 29  1  0     0  0
 41 39  2  0     0  0
 42 40  2  0     0  0
 43 18  1  0     0  0
 44 19  1  0     0  0
 45 10  1  0     0  0
 46  9  1  0     0  0
 47 55  2  0     0  0
 48 57  1  0     0  0
 49 34  1  0     0  0
 50 26  2  0     0  0
 51 43  2  0     0  0
 52 44  2  0     0  0
 53 44  1  0     0  0
 54 43  1  0     0  0
 55 51  1  0     0  0
 56 52  1  0     0  0
 57 53  2  0     0  0
 58 54  2  0     0  0
 59 40  1  0     0  0
 60 39  1  0     0  0
 16 13  1  0     0  0
 50 35  1  0     0  0
 47 58  1  0     0  0
 17 14  1  0     0  0
  5  2  2  0     0  0
 48 56  2  0     0  0
M  END
>  <prID>
357

>  <IDDB>
94680

>  <pIC50_HIV_Integrase>
5.494850022

>  <Q>
-4.30574389

>  <Activity_Integrase>
Inactive_Integrase

NA
NA
NA
NA
$$$$

  Accelrys05311914342D 1   1.00000     0.00000     0

 58 63  0     0  0            999 V2000
   -3.6375   -1.3417    0.0000 C   0  0  0  0  0  0           0  0  0
    3.6458   -1.3375    0.0000 C   0  0  0  0  0  0           0  0  0
   -4.2458   -1.6958    0.0000 S   0  0  3  0  0  0           0  0  0
    4.2458   -1.6917    0.0000 S   0  0  3  0  0  0           0  0  0
    3.6458   -0.6375    0.0000 C   0  0  0  0  0  0           0  0  0
   -3.6375   -0.6417    0.0000 C   0  0  0  0  0  0           0  0  0
   -4.2625   -0.2792    0.0000 N   0  0  0  0  0  0           0  0  0
    4.2708   -0.2750    0.0000 N   0  0  0  0  0  0           0  0  0
   -3.0292   -0.2875    0.0000 C   0  0  0  0  0  0           0  0  0
    3.0375   -0.2875    0.0000 C   0  0  0  0  0  0           0  0  0
    3.0375   -1.6875    0.0000 C   0  0  0  0  0  0           0  0  0
   -3.0292   -1.6958    0.0000 C   0  0  0  0  0  0           0  0  0
   -2.4208   -1.3417    0.0000 C   0  0  0  0  0  0           0  0  0
    2.4333   -1.3375    0.0000 C   0  0  0  0  0  0           0  0  0
    0.0042   -1.3417    0.0000 C   0  0  0  0  0  0           0  0  0
   -2.4208   -0.6417    0.0000 C   0  0  0  0  0  0           0  0  0
    2.4333   -0.6375    0.0000 C   0  0  0  0  0  0           0  0  0
   -4.8875    0.0792    0.0000 N   0  0  0  0  0  0           0  0  0
    4.8917    0.0917    0.0000 N   0  0  0  0  0  0           0  0  0
   -4.9000    2.9625    0.0000 C   0  0  0  0  0  0           0  0  0
    4.8792    2.9708    0.0000 C   0  0  0  0  0  0           0  0  0
    4.8833    2.2500    0.0000 C   0  0  0  0  0  0           0  0  0
   -4.8958    2.2417    0.0000 C   0  0  0  0  0  0           0  0  0
    0.6125   -1.7000    0.0000 N   0  0  0  0  0  0           0  0  0
   -0.6042   -1.7000    0.0000 N   0  0  0  0  0  0           0  0  0
   -5.5208    1.8792    0.0000 C   0  0  0  0  0  0           0  0  0
    5.5083    1.8917    0.0000 C   0  0  0  0  0  0           0  0  0
   -4.2458   -2.5042    0.0000 O   0  0  0  0  0  0           0  0  0
   -4.8333   -1.1208    0.0000 O   0  0  0  0  0  0           0  0  0
    4.2375   -2.5042    0.0000 O   0  0  0  0  0  0           0  0  0
    4.7750   -0.9917    0.0000 O   0  0  0  0  0  0           0  0  0
    4.8875    0.8125    0.0000 C   0  0  0  0  0  0           0  0  0
   -4.8917    0.8000    0.0000 C   0  0  0  0  0  0           0  0  0
    5.5125    1.1750    0.0000 C   0  0  0  0  0  0           0  0  0
   -5.5167    1.1542    0.0000 C   0  0  0  0  0  0           0  0  0
    1.8208   -0.2875    0.0000 C   0  0  0  0  0  0           0  0  0
   -1.8125   -0.2917    0.0000 C   0  0  0  0  0  0           0  0  0
   -1.8208   -1.7000    0.0000 C   0  0  0  0  0  0           0  0  0
    1.8250   -1.6917    0.0000 C   0  0  0  0  0  0           0  0  0
   -1.2125   -1.3500    0.0000 C   0  0  0  0  0  0           0  0  0
    1.2167   -1.3375    0.0000 C   0  0  0  0  0  0           0  0  0
    0.0000   -0.6417    0.0000 O   0  0  0  0  0  0           0  0  0
   -5.0750   -1.9167    0.0000 O   0  0  0  0  0  0           0  0  0
    5.0375   -1.8667    0.0000 O   0  0  0  0  0  0           0  0  0
   -5.5250    3.3208    0.0000 O   0  0  0  0  0  0           0  0  0
    5.5000    3.3375    0.0000 O   0  0  0  0  0  0           0  0  0
    4.2583    1.8875    0.0000 C   0  0  0  0  0  0           0  0  0
   -4.2708    1.8833    0.0000 C   0  0  0  0  0  0           0  0  0
    4.2625    1.1625    0.0000 C   0  0  0  0  0  0           0  0  0
   -4.2667    1.1625    0.0000 C   0  0  0  0  0  0           0  0  0
   -3.0375    0.4208    0.0000 O   0  0  0  0  0  0           0  0  0
    3.0333    0.4208    0.0000 O   0  0  0  0  0  0           0  0  0
    1.2125   -0.6375    0.0000 C   0  0  0  0  0  0           0  0  0
   -1.2083   -0.6458    0.0000 C   0  0  0  0  0  0           0  0  0
    4.2542    3.3333    0.0000 O   0  0  0  0  0  0           0  0  0
   -4.2792    3.3250    0.0000 O   0  0  0  0  0  0           0  0  0
    6.1333    0.8167    0.0000 C   0  0  0  0  0  0           0  0  0
   -6.1375    0.8000    0.0000 C   0  0  0  0  0  0           0  0  0
  2 11  1  0     0  0
  3  1  1  0     0  0
  4  2  1  0     0  0
  5 10  1  0     0  0
  6  1  2  0     0  0
  7  6  1  0     0  0
  8  5  1  0     0  0
  9  6  1  0     0  0
 10 17  2  0     0  0
 11 14  2  0     0  0
 12  1  1  0     0  0
 13 12  2  0     0  0
 14 39  1  0     0  0
 15 25  1  0     0  0
 16  9  2  0     0  0
 17 36  1  0     0  0
 18  7  2  0     0  0
 19  8  2  0     0  0
 20 23  1  0     0  0
 21 22  1  0     0  0
 22 47  1  0     0  0
 23 48  1  0     0  0
 24 15  1  0     0  0
 25 40  1  0     0  0
 26 35  1  0     0  0
 27 34  1  0     0  0
 28  3  2  0     0  0
 29  3  2  0     0  0
 30  4  2  0     0  0
 31  4  2  0     0  0
 32 19  1  0     0  0
 33 18  1  0     0  0
 34 32  2  0     0  0
 35 33  2  0     0  0
 36 53  2  0     0  0
 37 16  1  0     0  0
 38 13  1  0     0  0
 39 41  2  0     0  0
 40 38  2  0     0  0
 41 24  1  0     0  0
 42 15  2  0     0  0
 43  3  1  0     0  0
 44  4  1  0     0  0
 45 20  2  0     0  0
 46 21  2  0     0  0
 47 49  2  0     0  0
 48 50  2  0     0  0
 49 32  1  0     0  0
 50 33  1  0     0  0
 51  9  1  0     0  0
 52 10  1  0     0  0
 53 41  1  0     0  0
 54 37  2  0     0  0
 55 21  1  0     0  0
 56 20  1  0     0  0
 57 34  1  0     0  0
 58 35  1  0     0  0
 16 13  1  0     0  0
 54 40  1  0     0  0
 23 26  2  0     0  0
 17 14  1  0     0  0
  5  2  2  0     0  0
 22 27  2  0     0  0
M  END
>  <prID>
358

>  <IDDB>
94681

>  <pIC50_HIV_Integrase>
6.15490196

>  <Q>
-6.472328321

>  <Activity_Integrase>
Active_Integrase

NA
NA
NA
NA
$$$$

  Accelrys05311914342D 1   1.00000     0.00000     0

 60 65  0     0  0            999 V2000
   -3.3000   -1.2583    0.0000 C   0  0  0  0  0  0           0  0  0
    3.3083   -1.2500    0.0000 C   0  0  0  0  0  0           0  0  0
   -3.8542   -1.5708    0.0000 S   0  0  3  0  0  0           0  0  0
    3.8583   -1.5708    0.0000 S   0  0  3  0  0  0           0  0  0
    3.3125   -0.6167    0.0000 C   0  0  0  0  0  0           0  0  0
   -3.3000   -0.6167    0.0000 C   0  0  0  0  0  0           0  0  0
   -3.8667   -0.2917    0.0000 N   0  0  0  0  0  0           0  0  0
    3.8750   -0.2833    0.0000 N   0  0  0  0  0  0           0  0  0
   -2.7500   -0.3000    0.0000 C   0  0  0  0  0  0           0  0  0
    2.7583   -0.2958    0.0000 C   0  0  0  0  0  0           0  0  0
    2.7542   -1.5667    0.0000 C   0  0  0  0  0  0           0  0  0
   -2.7500   -1.5708    0.0000 C   0  0  0  0  0  0           0  0  0
   -2.2000   -1.2583    0.0000 C   0  0  0  0  0  0           0  0  0
    2.2042   -1.2500    0.0000 C   0  0  0  0  0  0           0  0  0
    0.0042   -1.2583    0.0000 C   0  0  0  0  0  0           0  0  0
   -2.2000   -0.6167    0.0000 C   0  0  0  0  0  0           0  0  0
    2.2083   -0.6125    0.0000 C   0  0  0  0  0  0           0  0  0
   -4.4375    0.0375    0.0000 N   0  0  0  0  0  0           0  0  0
    4.4375    0.0458    0.0000 N   0  0  0  0  0  0           0  0  0
   -4.4417    0.6917    0.0000 C   0  0  0  0  0  0           0  0  0
    4.4375    0.7000    0.0000 C   0  0  0  0  0  0           0  0  0
   -4.4458    2.6542    0.0000 C   0  0  0  0  0  0           0  0  0
    4.4292    2.6625    0.0000 C   0  0  0  0  0  0           0  0  0
    4.4375    2.0083    0.0000 C   0  0  0  0  0  0           0  0  0
   -4.4417    2.0000    0.0000 C   0  0  0  0  0  0           0  0  0
   -5.0083    1.0125    0.0000 C   0  0  0  0  0  0           0  0  0
    5.0000    1.0292    0.0000 C   0  0  0  0  0  0           0  0  0
   -0.5458   -1.5792    0.0000 N   0  0  0  0  0  0           0  0  0
    0.5583   -1.5750    0.0000 N   0  0  0  0  0  0           0  0  0
   -5.0083    1.6708    0.0000 C   0  0  0  0  0  0           0  0  0
    5.0000    1.6833    0.0000 C   0  0  0  0  0  0           0  0  0
    3.8500   -2.3083    0.0000 O   0  0  0  0  0  0           0  0  0
    4.3333   -0.9375    0.0000 O   0  0  0  0  0  0           0  0  0
   -4.3875   -1.0542    0.0000 O   0  0  0  0  0  0           0  0  0
   -3.8542   -2.3083    0.0000 O   0  0  0  0  0  0           0  0  0
   -1.6458   -0.3000    0.0000 C   0  0  0  0  0  0           0  0  0
    1.6542   -0.2958    0.0000 C   0  0  0  0  0  0           0  0  0
    1.6583   -1.5708    0.0000 C   0  0  0  0  0  0           0  0  0
   -1.6500   -1.5792    0.0000 C   0  0  0  0  0  0           0  0  0
    1.1042   -1.2542    0.0000 C   0  0  0  0  0  0           0  0  0
   -1.1000   -1.2583    0.0000 C   0  0  0  0  0  0           0  0  0
    0.0000   -0.6167    0.0000 O   0  0  0  0  0  0           0  0  0
   -4.6042   -1.7792    0.0000 O   0  0  0  0  0  0           0  0  0
    4.5750   -1.7292    0.0000 O   0  0  0  0  0  0           0  0  0
   -5.0167    2.9833    0.0000 O   0  0  0  0  0  0           0  0  0
    4.9958    2.9958    0.0000 O   0  0  0  0  0  0           0  0  0
   -3.8750    1.0208    0.0000 C   0  0  0  0  0  0           0  0  0
    3.8667    1.0208    0.0000 C   0  0  0  0  0  0           0  0  0
    3.8667    1.6792    0.0000 C   0  0  0  0  0  0           0  0  0
   -3.8750    1.6708    0.0000 C   0  0  0  0  0  0           0  0  0
   -2.7542    0.3417    0.0000 O   0  0  0  0  0  0           0  0  0
    2.7542    0.3458    0.0000 O   0  0  0  0  0  0           0  0  0
    1.1000   -0.6167    0.0000 C   0  0  0  0  0  0           0  0  0
   -1.1000   -0.6208    0.0000 C   0  0  0  0  0  0           0  0  0
    3.8583    2.9917    0.0000 O   0  0  0  0  0  0           0  0  0
   -3.8833    2.9833    0.0000 O   0  0  0  0  0  0           0  0  0
    5.5667    0.7042    0.0000 O   0  0  0  0  0  0           0  0  0
   -5.5792    0.6917    0.0000 O   0  0  0  0  0  0           0  0  0
    6.1333    1.0333    0.0000 C   0  0  0  0  0  0           0  0  0
   -6.1375    1.0208    0.0000 C   0  0  0  0  0  0           0  0  0
  2 11  1  0     0  0
  3  1  1  0     0  0
  4  2  1  0     0  0
  5 10  1  0     0  0
  6  1  2  0     0  0
  7  6  1  0     0  0
  8  5  1  0     0  0
  9  6  1  0     0  0
 10 17  2  0     0  0
 11 14  2  0     0  0
 12  1  1  0     0  0
 13 12  2  0     0  0
 14 38  1  0     0  0
 15 28  1  0     0  0
 16  9  2  0     0  0
 17 37  1  0     0  0
 18  7  2  0     0  0
 19  8  2  0     0  0
 20 18  1  0     0  0
 21 19  1  0     0  0
 22 25  1  0     0  0
 23 24  1  0     0  0
 24 49  1  0     0  0
 25 50  1  0     0  0
 26 20  2  0     0  0
 27 21  2  0     0  0
 28 41  1  0     0  0
 29 15  1  0     0  0
 30 26  1  0     0  0
 31 27  1  0     0  0
 32  4  2  0     0  0
 33  4  2  0     0  0
 34  3  2  0     0  0
 35  3  2  0     0  0
 36 16  1  0     0  0
 37 53  2  0     0  0
 38 40  2  0     0  0
 39 13  1  0     0  0
 40 29  1  0     0  0
 41 39  2  0     0  0
 42 15  2  0     0  0
 43  3  1  0     0  0
 44  4  1  0     0  0
 45 22  2  0     0  0
 46 23  2  0     0  0
 47 20  1  0     0  0
 48 21  1  0     0  0
 49 48  2  0     0  0
 50 47  2  0     0  0
 51  9  1  0     0  0
 52 10  1  0     0  0
 53 40  1  0     0  0
 54 36  2  0     0  0
 55 23  1  0     0  0
 56 22  1  0     0  0
 57 27  1  0     0  0
 58 26  1  0     0  0
 59 57  1  0     0  0
 60 58  1  0     0  0
 13 16  1  0     0  0
 41 54  1  0     0  0
 25 30  2  0     0  0
 17 14  1  0     0  0
  5  2  2  0     0  0
 24 31  2  0     0  0
M  END
>  <prID>
359

>  <IDDB>
94682

>  <pIC50_HIV_Integrase>
5.926935982

>  <Q>
-6.573857123

>  <Activity_Integrase>
Inactive_Integrase

NA
NA
NA
NA
$$$$

  Accelrys05311914342D 1   1.00000     0.00000     0

 64 69  0     0  0            999 V2000
   -3.6333   -1.5083    0.0000 C   0  0  0  0  0  0           0  0  0
    3.6417   -1.5042    0.0000 C   0  0  0  0  0  0           0  0  0
   -4.2458   -1.8583    0.0000 S   0  0  3  0  0  0           0  0  0
    4.2458   -1.8542    0.0000 S   0  0  3  0  0  0           0  0  0
    3.6458   -0.8042    0.0000 C   0  0  0  0  0  0           0  0  0
   -3.6333   -0.8083    0.0000 C   0  0  0  0  0  0           0  0  0
   -4.8875    0.6333    0.0000 C   0  0  0  0  0  0           0  0  0
    4.8875    0.6417    0.0000 C   0  0  0  0  0  0           0  0  0
   -4.8917    2.0750    0.0000 C   0  0  0  0  0  0           0  0  0
    4.8833    2.0833    0.0000 C   0  0  0  0  0  0           0  0  0
   -4.2667    1.7125    0.0000 C   0  0  0  0  0  0           0  0  0
    5.5083    1.7250    0.0000 C   0  0  0  0  0  0           0  0  0
    4.2583    1.7208    0.0000 C   0  0  0  0  0  0           0  0  0
   -5.5167    1.7125    0.0000 C   0  0  0  0  0  0           0  0  0
    4.2583    1.0000    0.0000 C   0  0  0  0  0  0           0  0  0
   -5.5167    0.9875    0.0000 C   0  0  0  0  0  0           0  0  0
   -4.2667    0.9958    0.0000 C   0  0  0  0  0  0           0  0  0
    5.5125    1.0083    0.0000 C   0  0  0  0  0  0           0  0  0
   -4.2625   -0.4458    0.0000 N   0  0  0  0  0  0           0  0  0
    4.2667   -0.4375    0.0000 N   0  0  0  0  0  0           0  0  0
   -4.8833   -0.0875    0.0000 N   0  0  0  0  0  0           0  0  0
    4.8917   -0.0750    0.0000 N   0  0  0  0  0  0           0  0  0
    3.0375   -0.4542    0.0000 C   0  0  0  0  0  0           0  0  0
   -3.0250   -0.4542    0.0000 C   0  0  0  0  0  0           0  0  0
   -3.0250   -1.8583    0.0000 C   0  0  0  0  0  0           0  0  0
    3.0375   -1.8542    0.0000 C   0  0  0  0  0  0           0  0  0
    2.4292   -1.5000    0.0000 C   0  0  0  0  0  0           0  0  0
   -2.4208   -1.5083    0.0000 C   0  0  0  0  0  0           0  0  0
    0.0042   -1.5083    0.0000 C   0  0  0  0  0  0           0  0  0
    2.4333   -0.8000    0.0000 C   0  0  0  0  0  0           0  0  0
   -2.4208   -0.8083    0.0000 C   0  0  0  0  0  0           0  0  0
   -4.8958    2.7958    0.0000 C   0  0  0  0  0  0           0  0  0
    4.8792    2.8042    0.0000 C   0  0  0  0  0  0           0  0  0
   -0.6000   -1.8667    0.0000 N   0  0  0  0  0  0           0  0  0
    0.6125   -1.8625    0.0000 N   0  0  0  0  0  0           0  0  0
   -4.8333   -1.2875    0.0000 O   0  0  0  0  0  0           0  0  0
   -4.2458   -2.6708    0.0000 O   0  0  0  0  0  0           0  0  0
    4.2375   -2.6708    0.0000 O   0  0  0  0  0  0           0  0  0
    4.7750   -1.1583    0.0000 O   0  0  0  0  0  0           0  0  0
   -1.8125   -0.4583    0.0000 C   0  0  0  0  0  0           0  0  0
    1.8208   -0.4542    0.0000 C   0  0  0  0  0  0           0  0  0
    1.8250   -1.8583    0.0000 C   0  0  0  0  0  0           0  0  0
   -1.8208   -1.8625    0.0000 C   0  0  0  0  0  0           0  0  0
   -1.2125   -1.5167    0.0000 C   0  0  0  0  0  0           0  0  0
    1.2167   -1.5042    0.0000 C   0  0  0  0  0  0           0  0  0
    0.0000   -0.8083    0.0000 O   0  0  0  0  0  0           0  0  0
   -5.0708   -2.0833    0.0000 O   0  0  0  0  0  0           0  0  0
    5.0375   -2.0333    0.0000 O   0  0  0  0  0  0           0  0  0
   -5.5208    3.1542    0.0000 O   0  0  0  0  0  0           0  0  0
    5.5000    3.1708    0.0000 O   0  0  0  0  0  0           0  0  0
    6.1292    2.0875    0.0000 F   0  0  0  0  0  0           0  0  0
    3.6333    2.0833    0.0000 F   0  0  0  0  0  0           0  0  0
   -6.1375    2.0750    0.0000 F   0  0  0  0  0  0           0  0  0
   -3.6500    2.0792    0.0000 F   0  0  0  0  0  0           0  0  0
    6.1333    0.6500    0.0000 F   0  0  0  0  0  0           0  0  0
   -6.1375    0.6333    0.0000 F   0  0  0  0  0  0           0  0  0
    3.6375    0.6417    0.0000 F   0  0  0  0  0  0           0  0  0
   -3.6458    0.6375    0.0000 F   0  0  0  0  0  0           0  0  0
   -3.0333    0.2500    0.0000 O   0  0  0  0  0  0           0  0  0
    3.0333    0.2583    0.0000 O   0  0  0  0  0  0           0  0  0
    1.2167   -0.8042    0.0000 C   0  0  0  0  0  0           0  0  0
   -1.2083   -0.8125    0.0000 C   0  0  0  0  0  0           0  0  0
    4.2542    3.1667    0.0000 O   0  0  0  0  0  0           0  0  0
   -4.2750    3.1625    0.0000 O   0  0  0  0  0  0           0  0  0
  2 26  1  0     0  0
  3  1  1  0     0  0
  4  2  1  0     0  0
  5 23  1  0     0  0
  6  1  2  0     0  0
  7 21  1  0     0  0
  8 22  1  0     0  0
  9 14  2  0     0  0
 10 13  1  0     0  0
 11 17  2  0     0  0
 12 18  1  0     0  0
 13 15  2  0     0  0
 14 16  1  0     0  0
 15  8  1  0     0  0
 16  7  2  0     0  0
 17  7  1  0     0  0
 18  8  2  0     0  0
 19  6  1  0     0  0
 20  5  1  0     0  0
 21 19  2  0     0  0
 22 20  2  0     0  0
 23 30  2  0     0  0
 24  6  1  0     0  0
 25  1  1  0     0  0
 26 27  2  0     0  0
 27 42  1  0     0  0
 28 25  2  0     0  0
 29 34  1  0     0  0
 30 41  1  0     0  0
 31 24  2  0     0  0
 32  9  1  0     0  0
 33 10  1  0     0  0
 34 44  1  0     0  0
 35 29  1  0     0  0
 36  3  2  0     0  0
 37  3  2  0     0  0
 38  4  2  0     0  0
 39  4  2  0     0  0
 40 31  1  0     0  0
 41 61  2  0     0  0
 42 45  2  0     0  0
 43 28  1  0     0  0
 44 43  2  0     0  0
 45 35  1  0     0  0
 46 29  2  0     0  0
 47  3  1  0     0  0
 48  4  1  0     0  0
 49 32  2  0     0  0
 50 33  2  0     0  0
 51 12  1  0     0  0
 52 13  1  0     0  0
 53 14  1  0     0  0
 54 11  1  0     0  0
 55 18  1  0     0  0
 56 16  1  0     0  0
 57 15  1  0     0  0
 58 17  1  0     0  0
 59 24  1  0     0  0
 60 23  1  0     0  0
 61 45  1  0     0  0
 62 40  2  0     0  0
 63 33  1  0     0  0
 64 32  1  0     0  0
 28 31  1  0     0  0
 44 62  1  0     0  0
  9 11  1  0     0  0
 30 27  1  0     0  0
  5  2  2  0     0  0
 10 12  2  0     0  0
M  END
>  <prID>
360

>  <IDDB>
94683

>  <pIC50_HIV_Integrase>
6.48148606

>  <Q>
-25.08010361

>  <Activity_Integrase>
Active_Integrase

NA
NA
NA
NA
$$$$

  Accelrys05311914342D 1   1.00000     0.00000     0

 62 67  0     0  0            999 V2000
   -3.3000   -1.3000    0.0000 C   0  0  0  0  0  0           0  0  0
    3.3083   -1.2958    0.0000 C   0  0  0  0  0  0           0  0  0
   -3.8542   -1.6167    0.0000 S   0  0  3  0  0  0           0  0  0
    3.8583   -1.6125    0.0000 S   0  0  3  0  0  0           0  0  0
    3.3125   -0.6583    0.0000 C   0  0  0  0  0  0           0  0  0
   -3.3000   -0.6583    0.0000 C   0  0  0  0  0  0           0  0  0
   -5.0083    1.6250    0.0000 C   0  0  0  0  0  0           0  0  0
    5.0000    1.6375    0.0000 C   0  0  0  0  0  0           0  0  0
    3.8750   -0.3250    0.0000 N   0  0  0  0  0  0           0  0  0
   -3.8667   -0.3333    0.0000 N   0  0  0  0  0  0           0  0  0
    2.7583   -0.3375    0.0000 C   0  0  0  0  0  0           0  0  0
   -2.7500   -0.3375    0.0000 C   0  0  0  0  0  0           0  0  0
    4.4375    0.6583    0.0000 C   0  0  0  0  0  0           0  0  0
   -4.4417    0.6458    0.0000 C   0  0  0  0  0  0           0  0  0
    5.0000    0.9833    0.0000 C   0  0  0  0  0  0           0  0  0
   -5.0083    0.9708    0.0000 C   0  0  0  0  0  0           0  0  0
   -4.4417    1.9542    0.0000 C   0  0  0  0  0  0           0  0  0
    4.4375    1.9625    0.0000 C   0  0  0  0  0  0           0  0  0
    2.7583   -1.6125    0.0000 C   0  0  0  0  0  0           0  0  0
   -2.7500   -1.6167    0.0000 C   0  0  0  0  0  0           0  0  0
   -4.4375   -0.0083    0.0000 N   0  0  0  0  0  0           0  0  0
    4.4375    0.0000    0.0000 N   0  0  0  0  0  0           0  0  0
    2.2083   -1.2917    0.0000 C   0  0  0  0  0  0           0  0  0
   -2.2000   -1.3000    0.0000 C   0  0  0  0  0  0           0  0  0
    0.0042   -1.3000    0.0000 C   0  0  0  0  0  0           0  0  0
    2.2083   -0.6583    0.0000 C   0  0  0  0  0  0           0  0  0
   -2.2000   -0.6583    0.0000 C   0  0  0  0  0  0           0  0  0
   -5.5792    1.9583    0.0000 C   0  0  0  0  0  0           0  0  0
    5.5625    1.9667    0.0000 C   0  0  0  0  0  0           0  0  0
    3.8708    0.9792    0.0000 C   0  0  0  0  0  0           0  0  0
   -3.8750    0.9792    0.0000 C   0  0  0  0  0  0           0  0  0
   -3.8750    1.6250    0.0000 C   0  0  0  0  0  0           0  0  0
    3.8667    1.6375    0.0000 C   0  0  0  0  0  0           0  0  0
   -0.5458   -1.6208    0.0000 N   0  0  0  0  0  0           0  0  0
    0.5583   -1.6167    0.0000 N   0  0  0  0  0  0           0  0  0
   -4.3875   -1.1000    0.0000 O   0  0  0  0  0  0           0  0  0
   -3.8542   -2.3542    0.0000 O   0  0  0  0  0  0           0  0  0
    3.8500   -2.3542    0.0000 O   0  0  0  0  0  0           0  0  0
    4.3375   -0.9792    0.0000 O   0  0  0  0  0  0           0  0  0
    1.6542   -0.3375    0.0000 C   0  0  0  0  0  0           0  0  0
   -1.6458   -0.3417    0.0000 C   0  0  0  0  0  0           0  0  0
    1.6583   -1.6167    0.0000 C   0  0  0  0  0  0           0  0  0
   -1.6500   -1.6167    0.0000 C   0  0  0  0  0  0           0  0  0
   -1.1000   -1.3042    0.0000 C   0  0  0  0  0  0           0  0  0
    1.1042   -1.2958    0.0000 C   0  0  0  0  0  0           0  0  0
    0.0000   -0.6583    0.0000 O   0  0  0  0  0  0           0  0  0
   -4.6042   -1.8208    0.0000 O   0  0  0  0  0  0           0  0  0
    4.5792   -1.7750    0.0000 O   0  0  0  0  0  0           0  0  0
   -6.1417    1.6333    0.0000 O   0  0  0  0  0  0           0  0  0
    6.1292    1.6417    0.0000 O   0  0  0  0  0  0           0  0  0
   -5.5750    0.6458    0.0000 F   0  0  0  0  0  0           0  0  0
    5.5667    0.6625    0.0000 F   0  0  0  0  0  0           0  0  0
    4.4292    2.6208    0.0000 F   0  0  0  0  0  0           0  0  0
   -4.4458    2.6083    0.0000 F   0  0  0  0  0  0           0  0  0
   -2.7542    0.3000    0.0000 O   0  0  0  0  0  0           0  0  0
    2.7542    0.3000    0.0000 O   0  0  0  0  0  0           0  0  0
   -3.3125    1.9583    0.0000 F   0  0  0  0  0  0           0  0  0
    3.3000    1.9625    0.0000 F   0  0  0  0  0  0           0  0  0
   -1.1000   -0.6667    0.0000 C   0  0  0  0  0  0           0  0  0
    1.1000   -0.6583    0.0000 C   0  0  0  0  0  0           0  0  0
    5.5583    2.6208    0.0000 O   0  0  0  0  0  0           0  0  0
   -5.5833    2.6083    0.0000 O   0  0  0  0  0  0           0  0  0
  2 19  1  0     0  0
  3  1  1  0     0  0
  4  2  1  0     0  0
  5 11  1  0     0  0
  6  1  2  0     0  0
  7 16  1  0     0  0
  8 15  1  0     0  0
  9  5  1  0     0  0
 10  6  1  0     0  0
 11 26  2  0     0  0
 12  6  1  0     0  0
 13 22  1  0     0  0
 14 21  1  0     0  0
 15 13  2  0     0  0
 16 14  2  0     0  0
 17 32  1  0     0  0
 18 33  1  0     0  0
 19 23  2  0     0  0
 20  1  1  0     0  0
 21 10  2  0     0  0
 22  9  2  0     0  0
 23 42  1  0     0  0
 24 20  2  0     0  0
 25 34  1  0     0  0
 26 40  1  0     0  0
 27 12  2  0     0  0
 28  7  1  0     0  0
 29  8  1  0     0  0
 30 13  1  0     0  0
 31 14  1  0     0  0
 32 31  2  0     0  0
 33 30  2  0     0  0
 34 44  1  0     0  0
 35 25  1  0     0  0
 36  3  2  0     0  0
 37  3  2  0     0  0
 38  4  2  0     0  0
 39  4  2  0     0  0
 40 60  2  0     0  0
 41 27  1  0     0  0
 42 45  2  0     0  0
 43 24  1  0     0  0
 44 43  2  0     0  0
 45 35  1  0     0  0
 46 25  2  0     0  0
 47  3  1  0     0  0
 48  4  1  0     0  0
 49 28  2  0     0  0
 50 29  2  0     0  0
 51 16  1  0     0  0
 52 15  1  0     0  0
 53 18  1  0     0  0
 54 17  1  0     0  0
 55 12  1  0     0  0
 56 11  1  0     0  0
 57 32  1  0     0  0
 58 33  1  0     0  0
 59 41  2  0     0  0
 60 45  1  0     0  0
 61 29  1  0     0  0
 62 28  1  0     0  0
 24 27  1  0     0  0
 44 59  1  0     0  0
 17  7  2  0     0  0
 26 23  1  0     0  0
  5  2  2  0     0  0
 18  8  2  0     0  0
M  END
>  <prID>
361

>  <IDDB>
94684

>  <pIC50_HIV_Integrase>
6

>  <Q>
-20.47870475

>  <Activity_Integrase>
Inactive_Integrase

NA
NA
NA
NA
$$$$

  Accelrys05311914342D 1   1.00000     0.00000     0

 56 61  0     0  0            999 V2000
   -3.6708   -1.2167    0.0000 C   0  0  0  0  0  0           0  0  0
    3.6917   -1.1875    0.0000 C   0  0  0  0  0  0           0  0  0
   -4.2750   -1.5625    0.0000 S   0  0  3  0  0  0           0  0  0
    4.3125   -1.5375    0.0000 S   0  0  3  0  0  0           0  0  0
    3.6833   -0.4708    0.0000 C   0  0  0  0  0  0           0  0  0
   -3.6708   -0.5125    0.0000 C   0  0  0  0  0  0           0  0  0
   -4.2875   -0.1542    0.0000 N   0  0  0  0  0  0           0  0  0
    4.3000   -0.1125    0.0000 N   0  0  0  0  0  0           0  0  0
   -3.0625   -0.1583    0.0000 C   0  0  0  0  0  0           0  0  0
    3.0708   -0.1208    0.0000 C   0  0  0  0  0  0           0  0  0
    3.0750   -1.5458    0.0000 C   0  0  0  0  0  0           0  0  0
   -3.0625   -1.5667    0.0000 C   0  0  0  0  0  0           0  0  0
   -2.4625   -1.2083    0.0000 C   0  0  0  0  0  0           0  0  0
    2.4583   -1.1917    0.0000 C   0  0  0  0  0  0           0  0  0
   -0.0125   -1.2000    0.0000 C   0  0  0  0  0  0           0  0  0
   -2.4625   -0.5083    0.0000 C   0  0  0  0  0  0           0  0  0
    2.4583   -0.4792    0.0000 C   0  0  0  0  0  0           0  0  0
   -4.2875    0.5625    0.0000 N   0  0  0  0  0  0           0  0  0
    4.2917    0.6000    0.0000 N   0  0  0  0  0  0           0  0  0
   -5.5208    2.7042    0.0000 C   0  0  0  0  0  0           0  0  0
    5.5000    2.7583    0.0000 C   0  0  0  0  0  0           0  0  0
    0.6083   -1.5583    0.0000 N   0  0  0  0  0  0           0  0  0
   -0.6250   -1.5625    0.0000 N   0  0  0  0  0  0           0  0  0
    4.8167   -1.0292    0.0000 O   0  0  0  0  0  0           0  0  0
    3.7625   -2.1375    0.0000 O   0  0  0  0  0  0           0  0  0
   -3.6833   -2.2250    0.0000 O   0  0  0  0  0  0           0  0  0
   -4.9000   -1.0083    0.0000 O   0  0  0  0  0  0           0  0  0
    5.5125    2.0417    0.0000 C   0  0  0  0  0  0           0  0  0
   -5.5208    1.9833    0.0000 C   0  0  0  0  0  0           0  0  0
    1.8292   -0.1250    0.0000 C   0  0  0  0  0  0           0  0  0
   -1.8542   -0.1583    0.0000 C   0  0  0  0  0  0           0  0  0
   -1.8500   -1.5583    0.0000 C   0  0  0  0  0  0           0  0  0
    1.8375   -1.5583    0.0000 C   0  0  0  0  0  0           0  0  0
    1.2208   -1.1958    0.0000 C   0  0  0  0  0  0           0  0  0
   -1.2458   -1.2083    0.0000 C   0  0  0  0  0  0           0  0  0
   -0.0167   -0.4875    0.0000 O   0  0  0  0  0  0           0  0  0
    4.9000   -1.9208    0.0000 O   0  0  0  0  0  0           0  0  0
   -4.9000   -2.1167    0.0000 O   0  0  0  0  0  0           0  0  0
   -4.9042    1.6250    0.0000 C   0  0  0  0  0  0           0  0  0
    4.9000    1.6792    0.0000 C   0  0  0  0  0  0           0  0  0
   -6.1375    3.0625    0.0000 O   0  0  0  0  0  0           0  0  0
    6.1167    3.1208    0.0000 O   0  0  0  0  0  0           0  0  0
   -4.9083    0.9167    0.0000 C   0  0  0  0  0  0           0  0  0
    4.9083    0.9667    0.0000 C   0  0  0  0  0  0           0  0  0
    3.0583    0.5917    0.0000 O   0  0  0  0  0  0           0  0  0
   -3.0667    0.5375    0.0000 O   0  0  0  0  0  0           0  0  0
   -1.2500   -0.5042    0.0000 C   0  0  0  0  0  0           0  0  0
    1.2167   -0.4875    0.0000 C   0  0  0  0  0  0           0  0  0
    4.8792    3.1125    0.0000 O   0  0  0  0  0  0           0  0  0
   -4.8958    3.0625    0.0000 O   0  0  0  0  0  0           0  0  0
    6.1375    1.6917    0.0000 C   0  0  0  0  0  0           0  0  0
   -6.1292    1.6250    0.0000 C   0  0  0  0  0  0           0  0  0
   -6.1250    0.9083    0.0000 C   0  0  0  0  0  0           0  0  0
    6.1375    0.9792    0.0000 C   0  0  0  0  0  0           0  0  0
   -5.5208    0.5583    0.0000 C   0  0  0  0  0  0           0  0  0
    5.5292    0.6125    0.0000 C   0  0  0  0  0  0           0  0  0
  2 11  1  0     0  0
  3  1  1  0     0  0
  4  2  1  0     0  0
  5 10  1  0     0  0
  6  1  2  0     0  0
  7  6  1  0     0  0
  8  5  1  0     0  0
  9  6  1  0     0  0
 10 17  2  0     0  0
 11 14  2  0     0  0
 12  1  1  0     0  0
 13 12  2  0     0  0
 14 33  1  0     0  0
 15 23  1  0     0  0
 16  9  2  0     0  0
 17 30  1  0     0  0
 18  7  2  0     0  0
 19  8  2  0     0  0
 20 29  1  0     0  0
 21 28  1  0     0  0
 22 15  1  0     0  0
 23 35  1  0     0  0
 24  4  2  0     0  0
 25  4  2  0     0  0
 26  3  2  0     0  0
 27  3  2  0     0  0
 28 40  2  0     0  0
 29 39  1  0     0  0
 30 48  2  0     0  0
 31 16  1  0     0  0
 32 13  1  0     0  0
 33 34  2  0     0  0
 34 22  1  0     0  0
 35 32  2  0     0  0
 36 15  2  0     0  0
 37  4  1  0     0  0
 38  3  1  0     0  0
 39 43  2  0     0  0
 40 44  1  0     0  0
 41 20  2  0     0  0
 42 21  2  0     0  0
 43 18  1  0     0  0
 44 19  1  0     0  0
 45 10  1  0     0  0
 46  9  1  0     0  0
 47 31  2  0     0  0
 48 34  1  0     0  0
 49 21  1  0     0  0
 50 20  1  0     0  0
 51 54  2  0     0  0
 52 53  1  0     0  0
 53 55  2  0     0  0
 54 56  1  0     0  0
 55 43  1  0     0  0
 56 44  2  0     0  0
 16 13  1  0     0  0
 47 35  1  0     0  0
 52 29  2  0     0  0
 17 14  1  0     0  0
  5  2  2  0     0  0
 51 28  1  0     0  0
M  END
>  <prID>
362

>  <IDDB>
94685

>  <pIC50_HIV_Integrase>
6.261439373

>  <Q>
-6.103088243

>  <Activity_Integrase>
Active_Integrase

NA
NA
NA
NA
$$$$

  Accelrys05311914342D 1   1.00000     0.00000     0

 60 65  0     0  0            999 V2000
   -2.8167   -1.0750    0.0000 C   0  0  0  0  0  0           0  0  0
    2.8208   -1.0583    0.0000 C   0  0  0  0  0  0           0  0  0
   -3.2750   -1.3417    0.0000 S   0  0  3  0  0  0           0  0  0
    3.3000   -1.3250    0.0000 S   0  0  3  0  0  0           0  0  0
    2.8167   -0.5000    0.0000 C   0  0  0  0  0  0           0  0  0
   -2.8125   -0.5375    0.0000 C   0  0  0  0  0  0           0  0  0
   -3.2875   -0.2583    0.0000 N   0  0  0  0  0  0           0  0  0
    3.2917   -0.2250    0.0000 N   0  0  0  0  0  0           0  0  0
   -2.3458   -0.2583    0.0000 C   0  0  0  0  0  0           0  0  0
    2.3500   -0.2333    0.0000 C   0  0  0  0  0  0           0  0  0
    2.3542   -1.3292    0.0000 C   0  0  0  0  0  0           0  0  0
   -2.3458   -1.3458    0.0000 C   0  0  0  0  0  0           0  0  0
   -1.8833   -1.0750    0.0000 C   0  0  0  0  0  0           0  0  0
    1.8792   -1.0583    0.0000 C   0  0  0  0  0  0           0  0  0
   -0.0083   -1.0667    0.0000 C   0  0  0  0  0  0           0  0  0
   -1.8833   -0.5333    0.0000 C   0  0  0  0  0  0           0  0  0
    1.8792   -0.5083    0.0000 C   0  0  0  0  0  0           0  0  0
   -3.2833    0.2958    0.0000 N   0  0  0  0  0  0           0  0  0
    3.2875    0.3292    0.0000 N   0  0  0  0  0  0           0  0  0
    0.4625   -1.3375    0.0000 N   0  0  0  0  0  0           0  0  0
   -0.4833   -1.3458    0.0000 N   0  0  0  0  0  0           0  0  0
   -2.8208   -1.8583    0.0000 O   0  0  0  0  0  0           0  0  0
    3.6875   -0.9292    0.0000 O   0  0  0  0  0  0           0  0  0
    2.8833   -1.7917    0.0000 O   0  0  0  0  0  0           0  0  0
   -3.7500   -0.9125    0.0000 O   0  0  0  0  0  0           0  0  0
   -1.4208   -0.2583    0.0000 C   0  0  0  0  0  0           0  0  0
    1.4000   -0.2375    0.0000 C   0  0  0  0  0  0           0  0  0
   -1.4167   -1.3417    0.0000 C   0  0  0  0  0  0           0  0  0
    1.4042   -1.3375    0.0000 C   0  0  0  0  0  0           0  0  0
   -5.6625    2.2167    0.0000 C   0  0  0  0  0  0           0  0  0
    5.6583    2.2625    0.0000 C   0  0  0  0  0  0           0  0  0
    0.9333   -1.0583    0.0000 C   0  0  0  0  0  0           0  0  0
   -0.9583   -1.0708    0.0000 C   0  0  0  0  0  0           0  0  0
   -0.0125   -0.5167    0.0000 O   0  0  0  0  0  0           0  0  0
   -3.7542   -1.7792    0.0000 O   0  0  0  0  0  0           0  0  0
    3.7542   -1.6208    0.0000 O   0  0  0  0  0  0           0  0  0
   -5.6625    2.7625    0.0000 O   0  0  0  0  0  0           0  0  0
    5.6583    2.8083    0.0000 O   0  0  0  0  0  0           0  0  0
   -3.7625    0.5708    0.0000 C   0  0  0  0  0  0           0  0  0
    3.7625    0.6042    0.0000 C   0  0  0  0  0  0           0  0  0
    2.3458    0.3208    0.0000 O   0  0  0  0  0  0           0  0  0
   -2.3500    0.2750    0.0000 O   0  0  0  0  0  0           0  0  0
    0.9292   -0.5167    0.0000 C   0  0  0  0  0  0           0  0  0
   -0.9583   -0.5292    0.0000 C   0  0  0  0  0  0           0  0  0
   -5.1875    1.9417    0.0000 C   0  0  0  0  0  0           0  0  0
    5.1833    1.9833    0.0000 C   0  0  0  0  0  0           0  0  0
    4.7125    1.1625    0.0000 C   0  0  0  0  0  0           0  0  0
   -4.7125    1.1208    0.0000 C   0  0  0  0  0  0           0  0  0
    6.1375    1.9875    0.0000 O   0  0  0  0  0  0           0  0  0
   -6.1375    1.9417    0.0000 O   0  0  0  0  0  0           0  0  0
   -5.1875    1.3917    0.0000 C   0  0  0  0  0  0           0  0  0
    5.1833    1.4333    0.0000 C   0  0  0  0  0  0           0  0  0
    4.2375    0.3333    0.0000 C   0  0  0  0  0  0           0  0  0
    3.7583    1.1542    0.0000 C   0  0  0  0  0  0           0  0  0
   -4.2375    0.2917    0.0000 C   0  0  0  0  0  0           0  0  0
   -3.7625    1.1208    0.0000 C   0  0  0  0  0  0           0  0  0
    4.7125    0.6083    0.0000 C   0  0  0  0  0  0           0  0  0
    4.2333    1.4292    0.0000 C   0  0  0  0  0  0           0  0  0
   -4.7125    0.5625    0.0000 C   0  0  0  0  0  0           0  0  0
   -4.2375    1.3917    0.0000 C   0  0  0  0  0  0           0  0  0
  2 11  1  0     0  0
  3  1  1  0     0  0
  4  2  1  0     0  0
  5 10  1  0     0  0
  6  1  2  0     0  0
  7  6  1  0     0  0
  8  5  1  0     0  0
  9  6  1  0     0  0
 10 17  2  0     0  0
 11 14  2  0     0  0
 12  1  1  0     0  0
 13 12  2  0     0  0
 14 29  1  0     0  0
 15 21  1  0     0  0
 16  9  2  0     0  0
 17 27  1  0     0  0
 18  7  2  0     0  0
 19  8  2  0     0  0
 20 15  1  0     0  0
 21 33  1  0     0  0
 22  3  2  0     0  0
 23  4  2  0     0  0
 24  4  2  0     0  0
 25  3  2  0     0  0
 26 16  1  0     0  0
 27 43  2  0     0  0
 28 13  1  0     0  0
 29 32  2  0     0  0
 30 45  1  0     0  0
 31 46  1  0     0  0
 32 20  1  0     0  0
 33 28  2  0     0  0
 34 15  2  0     0  0
 35  3  1  0     0  0
 36  4  1  0     0  0
 37 30  2  0     0  0
 38 31  2  0     0  0
 39 18  1  0     0  0
 40 19  1  0     0  0
 41 10  1  0     0  0
 42  9  1  0     0  0
 43 32  1  0     0  0
 44 26  2  0     0  0
 45 51  1  0     0  0
 46 52  1  0     0  0
 47 58  1  0     0  0
 48 59  1  0     0  0
 49 31  1  0     0  0
 50 30  1  0     0  0
 51 48  1  0     0  0
 52 47  1  0     0  0
 53 40  2  0     0  0
 54 40  1  0     0  0
 55 39  1  0     0  0
 56 39  2  0     0  0
 57 53  1  0     0  0
 58 54  2  0     0  0
 59 55  2  0     0  0
 60 56  1  0     0  0
 16 13  1  0     0  0
 44 33  1  0     0  0
 48 60  2  0     0  0
 17 14  1  0     0  0
  5  2  2  0     0  0
 47 57  2  0     0  0
M  END
>  <prID>
363

>  <IDDB>
94686

>  <pIC50_HIV_Integrase>
6.1989700045

>  <Q>
-7.29652361

>  <Activity_Integrase>
Active_Integrase

NA
NA
NA
NA
$$$$

  Accelrys05311914342D 1   1.00000     0.00000     0

 66 71  0     0  0            999 V2000
   -3.3000   -1.6250    0.0000 C   0  0  0  0  0  0           0  0  0
    3.3083   -1.6208    0.0000 C   0  0  0  0  0  0           0  0  0
   -3.8542   -1.9417    0.0000 S   0  0  3  0  0  0           0  0  0
    3.8583   -1.9375    0.0000 S   0  0  3  0  0  0           0  0  0
    3.3125   -0.9833    0.0000 C   0  0  0  0  0  0           0  0  0
   -3.3000   -0.9875    0.0000 C   0  0  0  0  0  0           0  0  0
   -3.8667   -0.6583    0.0000 N   0  0  0  0  0  0           0  0  0
    3.8792   -0.6542    0.0000 N   0  0  0  0  0  0           0  0  0
   -2.7458   -0.6667    0.0000 C   0  0  0  0  0  0           0  0  0
    2.7583   -0.6625    0.0000 C   0  0  0  0  0  0           0  0  0
    2.7583   -1.9375    0.0000 C   0  0  0  0  0  0           0  0  0
   -2.7458   -1.9417    0.0000 C   0  0  0  0  0  0           0  0  0
   -2.2000   -1.6250    0.0000 C   0  0  0  0  0  0           0  0  0
    2.2083   -1.6167    0.0000 C   0  0  0  0  0  0           0  0  0
    0.0042   -1.6250    0.0000 C   0  0  0  0  0  0           0  0  0
   -2.1958   -0.9875    0.0000 C   0  0  0  0  0  0           0  0  0
    2.2083   -0.9792    0.0000 C   0  0  0  0  0  0           0  0  0
   -4.4375   -0.3333    0.0000 N   0  0  0  0  0  0           0  0  0
    4.4417   -0.3208    0.0000 N   0  0  0  0  0  0           0  0  0
   -3.8833    2.6125    0.0000 C   0  0  0  0  0  0           0  0  0
    3.8625    2.6208    0.0000 C   0  0  0  0  0  0           0  0  0
    4.4333    2.2917    0.0000 C   0  0  3  0  0  0           0  0  0
   -4.4458    2.2833    0.0000 C   0  0  3  0  0  0           0  0  0
    0.5583   -1.9458    0.0000 N   0  0  0  0  0  0           0  0  0
   -0.5458   -1.9500    0.0000 N   0  0  0  0  0  0           0  0  0
    4.3375   -1.3042    0.0000 O   0  0  0  0  0  0           0  0  0
   -4.3833   -1.4208    0.0000 O   0  0  0  0  0  0           0  0  0
   -3.8542   -2.6792    0.0000 O   0  0  0  0  0  0           0  0  0
    3.8500   -2.6792    0.0000 O   0  0  0  0  0  0           0  0  0
   -1.6417   -0.6708    0.0000 C   0  0  0  0  0  0           0  0  0
    1.6542   -0.6667    0.0000 C   0  0  0  0  0  0           0  0  0
   -5.5833    2.2875    0.0000 C   0  0  0  0  0  0           0  0  0
    5.5583    2.2958    0.0000 C   0  0  0  0  0  0           0  0  0
   -1.6500   -1.9458    0.0000 C   0  0  0  0  0  0           0  0  0
    1.6583   -1.9375    0.0000 C   0  0  0  0  0  0           0  0  0
   -5.0125    2.6083    0.0000 C   0  0  0  0  0  0           0  0  0
    5.0000    2.6208    0.0000 C   0  0  0  0  0  0           0  0  0
   -4.4417    1.6292    0.0000 C   0  0  0  0  0  0           0  0  0
    4.4375    1.6417    0.0000 C   0  0  0  0  0  0           0  0  0
    1.1042   -1.6208    0.0000 C   0  0  0  0  0  0           0  0  0
   -1.1000   -1.6292    0.0000 C   0  0  0  0  0  0           0  0  0
    0.0000   -0.9875    0.0000 O   0  0  0  0  0  0           0  0  0
   -4.6000   -2.1458    0.0000 O   0  0  0  0  0  0           0  0  0
    4.5792   -2.1000    0.0000 O   0  0  0  0  0  0           0  0  0
   -3.3208    2.2292    0.0000 O   0  0  0  0  0  0           0  0  0
    3.2958    2.2958    0.0000 O   0  0  0  0  0  0           0  0  0
   -6.1458    2.6125    0.0000 O   0  0  0  0  0  0           0  0  0
    6.1250    2.6250    0.0000 O   0  0  0  0  0  0           0  0  0
    4.4375    0.3292    0.0000 C   0  0  0  0  0  0           0  0  0
   -4.4417    0.3208    0.0000 C   0  0  0  0  0  0           0  0  0
    3.8708    1.3083    0.0000 C   0  0  0  0  0  0           0  0  0
   -5.0042    1.3000    0.0000 C   0  0  0  0  0  0           0  0  0
   -3.8750    1.3000    0.0000 C   0  0  0  0  0  0           0  0  0
    5.0000    1.3125    0.0000 C   0  0  0  0  0  0           0  0  0
    2.7542   -0.0208    0.0000 O   0  0  0  0  0  0           0  0  0
   -2.7542   -0.0250    0.0000 O   0  0  0  0  0  0           0  0  0
    1.1000   -0.9833    0.0000 C   0  0  0  0  0  0           0  0  0
   -1.0958   -0.9917    0.0000 C   0  0  0  0  0  0           0  0  0
   -3.8833    3.2667    0.0000 O   0  0  0  0  0  0           0  0  0
    3.8583    3.2750    0.0000 O   0  0  0  0  0  0           0  0  0
    5.5583    1.6417    0.0000 O   0  0  0  0  0  0           0  0  0
   -5.5833    1.6333    0.0000 O   0  0  0  0  0  0           0  0  0
    3.8708    0.6542    0.0000 C   0  0  0  0  0  0           0  0  0
   -3.8708    0.6500    0.0000 C   0  0  0  0  0  0           0  0  0
   -5.0042    0.6417    0.0000 C   0  0  0  0  0  0           0  0  0
    5.0042    0.6625    0.0000 C   0  0  0  0  0  0           0  0  0
  2 11  1  0     0  0
  3  1  1  0     0  0
  4  2  1  0     0  0
  5 10  1  0     0  0
  6  1  2  0     0  0
  7  6  1  0     0  0
  8  5  1  0     0  0
  9  6  1  0     0  0
 10 17  2  0     0  0
 11 14  2  0     0  0
 12  1  1  0     0  0
 13 12  2  0     0  0
 14 35  1  0     0  0
 15 25  1  0     0  0
 16  9  2  0     0  0
 17 31  1  0     0  0
 18  7  2  0     0  0
 19  8  2  0     0  0
 20 23  1  0     0  0
 21 22  1  0     0  0
 22 39  1  0     0  0
 23 38  1  0     0  0
 24 15  1  0     0  0
 25 41  1  0     0  0
 26  4  2  0     0  0
 27  3  2  0     0  0
 28  3  2  0     0  0
 29  4  2  0     0  0
 30 16  1  0     0  0
 31 57  2  0     0  0
 32 36  1  0     0  0
 33 37  1  0     0  0
 34 13  1  0     0  0
 35 40  2  0     0  0
 36 23  1  0     0  0
 37 22  1  0     0  0
 38 52  2  0     0  0
 39 51  1  0     0  0
 40 24  1  0     0  0
 41 34  2  0     0  0
 42 15  2  0     0  0
 43  3  1  0     0  0
 44  4  1  0     0  0
 45 20  2  0     0  0
 46 21  2  0     0  0
 47 32  2  0     0  0
 48 33  2  0     0  0
 49 19  1  0     0  0
 50 18  1  0     0  0
 51 63  2  0     0  0
 52 65  1  0     0  0
 53 64  2  0     0  0
 54 66  1  0     0  0
 55 10  1  0     0  0
 56  9  1  0     0  0
 57 40  1  0     0  0
 58 30  2  0     0  0
 59 20  1  0     0  0
 60 21  1  0     0  0
 61 33  1  0     0  0
 62 32  1  0     0  0
 63 49  1  0     0  0
 64 50  1  0     0  0
 65 50  2  0     0  0
 66 49  2  0     0  0
 16 13  1  0     0  0
 58 41  1  0     0  0
 38 53  1  0     0  0
 17 14  1  0     0  0
  5  2  2  0     0  0
 39 54  2  0     0  0
M  END
>  <prID>
364

>  <IDDB>
94687

>  <pIC50_HIV_Integrase>
6.188375355

>  <Q>
-9.045736346

>  <Activity_Integrase>
Active_Integrase

NA
NA
NA
NA
$$$$

  Accelrys05311914342D 1   1.00000     0.00000     0

 60 65  0     0  0            999 V2000
   -2.7833   -1.0500    0.0000 C   0  0  0  0  0  0           0  0  0
    2.7958   -1.0458    0.0000 C   0  0  0  0  0  0           0  0  0
   -3.2542   -1.3167    0.0000 S   0  0  3  0  0  0           0  0  0
    3.2542   -1.3167    0.0000 S   0  0  3  0  0  0           0  0  0
    2.7958   -0.5083    0.0000 C   0  0  0  0  0  0           0  0  0
   -2.7833   -0.5125    0.0000 C   0  0  0  0  0  0           0  0  0
   -3.2625   -0.2375    0.0000 N   0  0  0  0  0  0           0  0  0
    3.2708   -0.2292    0.0000 N   0  0  0  0  0  0           0  0  0
   -2.3208   -0.2417    0.0000 C   0  0  0  0  0  0           0  0  0
    2.3292   -0.2375    0.0000 C   0  0  0  0  0  0           0  0  0
    2.3250   -1.3167    0.0000 C   0  0  0  0  0  0           0  0  0
   -2.3208   -1.3167    0.0000 C   0  0  0  0  0  0           0  0  0
   -1.8583   -1.0500    0.0000 C   0  0  0  0  0  0           0  0  0
    1.8625   -1.0417    0.0000 C   0  0  0  0  0  0           0  0  0
    0.0000   -1.0500    0.0000 C   0  0  0  0  0  0           0  0  0
   -1.8542   -0.5125    0.0000 C   0  0  0  0  0  0           0  0  0
    1.8625   -0.5083    0.0000 C   0  0  0  0  0  0           0  0  0
   -3.7458    0.0417    0.0000 N   0  0  0  0  0  0           0  0  0
    3.7500    0.0500    0.0000 N   0  0  0  0  0  0           0  0  0
   -4.7083    1.6958    0.0000 C   0  0  0  0  0  0           0  0  0
    4.6958    1.7083    0.0000 C   0  0  0  0  0  0           0  0  0
    0.4667   -1.3208    0.0000 N   0  0  0  0  0  0           0  0  0
   -0.4625   -1.3208    0.0000 N   0  0  0  0  0  0           0  0  0
    3.2500   -1.9375    0.0000 O   0  0  0  0  0  0           0  0  0
    3.6583   -0.7792    0.0000 O   0  0  0  0  0  0           0  0  0
   -3.7000   -0.8792    0.0000 O   0  0  0  0  0  0           0  0  0
   -3.2542   -1.9375    0.0000 O   0  0  0  0  0  0           0  0  0
    4.2208    1.4292    0.0000 C   0  0  0  0  0  0           0  0  0
   -4.2250    1.4208    0.0000 C   0  0  0  0  0  0           0  0  0
   -1.3875   -0.2458    0.0000 C   0  0  0  0  0  0           0  0  0
    1.3958   -0.2375    0.0000 C   0  0  0  0  0  0           0  0  0
    1.4000   -1.3167    0.0000 C   0  0  0  0  0  0           0  0  0
   -1.3958   -1.3208    0.0000 C   0  0  0  0  0  0           0  0  0
    0.9333   -1.0458    0.0000 C   0  0  0  0  0  0           0  0  0
   -0.9292   -1.0542    0.0000 C   0  0  0  0  0  0           0  0  0
    0.0000   -0.5125    0.0000 O   0  0  0  0  0  0           0  0  0
    3.8625   -1.4542    0.0000 O   0  0  0  0  0  0           0  0  0
   -3.8875   -1.4917    0.0000 O   0  0  0  0  0  0           0  0  0
   -4.2250    0.8625    0.0000 C   0  0  0  0  0  0           0  0  0
    4.2208    0.8792    0.0000 C   0  0  0  0  0  0           0  0  0
   -4.7125    2.2500    0.0000 O   0  0  0  0  0  0           0  0  0
    4.6958    2.2625    0.0000 O   0  0  0  0  0  0           0  0  0
   -3.7458    0.5917    0.0000 C   0  0  0  0  0  0           0  0  0
    3.7458    0.6000    0.0000 C   0  0  0  0  0  0           0  0  0
    2.3208    0.3000    0.0000 O   0  0  0  0  0  0           0  0  0
   -2.3250    0.3000    0.0000 O   0  0  0  0  0  0           0  0  0
    0.9292   -0.5083    0.0000 C   0  0  0  0  0  0           0  0  0
   -0.9250   -0.5167    0.0000 C   0  0  0  0  0  0           0  0  0
    5.1750    1.4333    0.0000 O   0  0  0  0  0  0           0  0  0
   -5.1875    1.4208    0.0000 O   0  0  0  0  0  0           0  0  0
    3.7417    1.7042    0.0000 C   0  0  0  0  0  0           0  0  0
   -3.7500    1.6958    0.0000 C   0  0  0  0  0  0           0  0  0
   -3.2708    1.4208    0.0000 C   0  0  0  0  0  0           0  0  0
    3.2667    1.4250    0.0000 C   0  0  0  0  0  0           0  0  0
   -3.2708    0.8708    0.0000 C   0  0  0  0  0  0           0  0  0
    3.2667    0.8750    0.0000 C   0  0  0  0  0  0           0  0  0
   -5.6708    1.7000    0.0000 C   0  0  0  0  0  0           0  0  0
    5.6500    1.7125    0.0000 C   0  0  0  0  0  0           0  0  0
   -6.1458    1.4250    0.0000 C   0  0  0  0  0  0           0  0  0
    6.1250    1.4333    0.0000 C   0  0  0  0  0  0           0  0  0
  2 11  1  0     0  0
  3  1  1  0     0  0
  4  2  1  0     0  0
  5 10  1  0     0  0
  6  1  2  0     0  0
  7  6  1  0     0  0
  8  5  1  0     0  0
  9  6  1  0     0  0
 10 17  2  0     0  0
 11 14  2  0     0  0
 12  1  1  0     0  0
 13 12  2  0     0  0
 14 32  1  0     0  0
 15 23  1  0     0  0
 16  9  2  0     0  0
 17 31  1  0     0  0
 18  7  2  0     0  0
 19  8  2  0     0  0
 20 29  1  0     0  0
 21 28  1  0     0  0
 22 15  1  0     0  0
 23 35  1  0     0  0
 24  4  2  0     0  0
 25  4  2  0     0  0
 26  3  2  0     0  0
 27  3  2  0     0  0
 28 40  1  0     0  0
 29 39  1  0     0  0
 30 16  1  0     0  0
 31 47  2  0     0  0
 32 34  2  0     0  0
 33 13  1  0     0  0
 34 22  1  0     0  0
 35 33  2  0     0  0
 36 15  2  0     0  0
 37  4  1  0     0  0
 38  3  1  0     0  0
 39 43  2  0     0  0
 40 44  2  0     0  0
 41 20  2  0     0  0
 42 21  2  0     0  0
 43 18  1  0     0  0
 44 19  1  0     0  0
 45 10  1  0     0  0
 46  9  1  0     0  0
 47 34  1  0     0  0
 48 30  2  0     0  0
 49 21  1  0     0  0
 50 20  1  0     0  0
 51 54  1  0     0  0
 52 53  1  0     0  0
 53 55  2  0     0  0
 54 56  2  0     0  0
 55 43  1  0     0  0
 56 44  1  0     0  0
 57 50  1  0     0  0
 58 49  1  0     0  0
 59 57  1  0     0  0
 60 58  1  0     0  0
 13 16  1  0     0  0
 35 48  1  0     0  0
 52 29  2  0     0  0
 17 14  1  0     0  0
  5  2  2  0     0  0
 51 28  2  0     0  0
M  END
>  <prID>
365

>  <IDDB>
94688

>  <pIC50_HIV_Integrase>
5.397940009

>  <Q>
-5.845968444

>  <Activity_Integrase>
Inactive_Integrase

NA
NA
NA
NA
$$$$

  Accelrys05311914342D 1   1.00000     0.00000     0

 60 65  0     0  0            999 V2000
   -3.3000   -1.3833    0.0000 C   0  0  0  0  0  0           0  0  0
    3.3083   -1.3792    0.0000 C   0  0  0  0  0  0           0  0  0
   -3.8583   -1.7000    0.0000 S   0  0  3  0  0  0           0  0  0
    3.8583   -1.7000    0.0000 S   0  0  3  0  0  0           0  0  0
    3.3125   -0.7458    0.0000 C   0  0  0  0  0  0           0  0  0
   -3.3000   -0.7500    0.0000 C   0  0  0  0  0  0           0  0  0
   -3.8708   -0.4208    0.0000 N   0  0  0  0  0  0           0  0  0
    3.8750   -0.4167    0.0000 N   0  0  0  0  0  0           0  0  0
   -2.7500   -0.4292    0.0000 C   0  0  0  0  0  0           0  0  0
    2.7583   -0.4250    0.0000 C   0  0  0  0  0  0           0  0  0
    2.7583   -1.7000    0.0000 C   0  0  0  0  0  0           0  0  0
   -2.7500   -1.7000    0.0000 C   0  0  0  0  0  0           0  0  0
   -2.2000   -1.3833    0.0000 C   0  0  0  0  0  0           0  0  0
    2.2083   -1.3792    0.0000 C   0  0  0  0  0  0           0  0  0
    0.0042   -1.3833    0.0000 C   0  0  0  0  0  0           0  0  0
   -2.2000   -0.7500    0.0000 C   0  0  0  0  0  0           0  0  0
    2.2083   -0.7417    0.0000 C   0  0  0  0  0  0           0  0  0
   -4.4417   -0.0958    0.0000 N   0  0  0  0  0  0           0  0  0
    4.4417   -0.0833    0.0000 N   0  0  0  0  0  0           0  0  0
   -4.4500    2.5208    0.0000 C   0  0  0  0  0  0           0  0  0
    4.4292    2.5333    0.0000 C   0  0  0  0  0  0           0  0  0
    0.5583   -1.7042    0.0000 N   0  0  0  0  0  0           0  0  0
   -0.5458   -1.7083    0.0000 N   0  0  0  0  0  0           0  0  0
    3.8542   -2.4417    0.0000 O   0  0  0  0  0  0           0  0  0
    4.3375   -1.0667    0.0000 O   0  0  0  0  0  0           0  0  0
   -4.3875   -1.1833    0.0000 O   0  0  0  0  0  0           0  0  0
   -3.8583   -2.4417    0.0000 O   0  0  0  0  0  0           0  0  0
   -1.6500   -0.4333    0.0000 C   0  0  0  0  0  0           0  0  0
    1.6542   -0.4250    0.0000 C   0  0  0  0  0  0           0  0  0
   -1.6500   -1.7083    0.0000 C   0  0  0  0  0  0           0  0  0
    1.6583   -1.7000    0.0000 C   0  0  0  0  0  0           0  0  0
    4.4375    1.8792    0.0000 C   0  0  0  0  0  0           0  0  0
   -4.4458    1.8667    0.0000 C   0  0  0  0  0  0           0  0  0
    1.1042   -1.3833    0.0000 C   0  0  0  0  0  0           0  0  0
   -1.1000   -1.3917    0.0000 C   0  0  0  0  0  0           0  0  0
    0.0000   -0.7500    0.0000 O   0  0  0  0  0  0           0  0  0
    4.5792   -1.8583    0.0000 O   0  0  0  0  0  0           0  0  0
   -4.6083   -1.9125    0.0000 O   0  0  0  0  0  0           0  0  0
   -3.8833    2.8542    0.0000 O   0  0  0  0  0  0           0  0  0
    3.8667    2.8625    0.0000 O   0  0  0  0  0  0           0  0  0
    4.4375    0.5708    0.0000 C   0  0  0  0  0  0           0  0  0
   -4.4417    0.5625    0.0000 C   0  0  0  0  0  0           0  0  0
    3.8667    1.5458    0.0000 C   0  0  0  0  0  0           0  0  0
   -3.8750    1.5417    0.0000 C   0  0  0  0  0  0           0  0  0
   -5.0083    1.5417    0.0000 C   0  0  0  0  0  0           0  0  0
    5.0000    1.5500    0.0000 C   0  0  0  0  0  0           0  0  0
   -2.7542    0.2125    0.0000 O   0  0  0  0  0  0           0  0  0
    2.7542    0.2167    0.0000 O   0  0  0  0  0  0           0  0  0
    1.1000   -0.7458    0.0000 C   0  0  0  0  0  0           0  0  0
   -1.0958   -0.7542    0.0000 C   0  0  0  0  0  0           0  0  0
    5.0000    2.8625    0.0000 O   0  0  0  0  0  0           0  0  0
   -5.0208    2.8542    0.0000 O   0  0  0  0  0  0           0  0  0
    5.0042    0.9000    0.0000 C   0  0  0  0  0  0           0  0  0
    3.8708    0.8917    0.0000 C   0  0  0  0  0  0           0  0  0
   -3.8750    0.8875    0.0000 C   0  0  0  0  0  0           0  0  0
   -5.0083    0.8833    0.0000 C   0  0  0  0  0  0           0  0  0
   -5.5833    2.5250    0.0000 C   0  0  0  0  0  0           0  0  0
    5.5625    2.5375    0.0000 C   0  0  0  0  0  0           0  0  0
   -6.1458    2.8542    0.0000 C   0  0  0  0  0  0           0  0  0
    6.1250    2.8625    0.0000 C   0  0  0  0  0  0           0  0  0
  2 11  1  0     0  0
  3  1  1  0     0  0
  4  2  1  0     0  0
  5 10  1  0     0  0
  6  1  2  0     0  0
  7  6  1  0     0  0
  8  5  1  0     0  0
  9  6  1  0     0  0
 10 17  2  0     0  0
 11 14  2  0     0  0
 12  1  1  0     0  0
 13 12  2  0     0  0
 14 31  1  0     0  0
 15 23  1  0     0  0
 16  9  2  0     0  0
 17 29  1  0     0  0
 18  7  2  0     0  0
 19  8  2  0     0  0
 20 33  1  0     0  0
 21 32  1  0     0  0
 22 15  1  0     0  0
 23 35  1  0     0  0
 24  4  2  0     0  0
 25  4  2  0     0  0
 26  3  2  0     0  0
 27  3  2  0     0  0
 28 16  1  0     0  0
 29 49  2  0     0  0
 30 13  1  0     0  0
 31 34  2  0     0  0
 32 43  1  0     0  0
 33 45  2  0     0  0
 34 22  1  0     0  0
 35 30  2  0     0  0
 36 15  2  0     0  0
 37  4  1  0     0  0
 38  3  1  0     0  0
 39 20  2  0     0  0
 40 21  2  0     0  0
 41 19  1  0     0  0
 42 18  1  0     0  0
 43 54  2  0     0  0
 44 55  2  0     0  0
 45 56  1  0     0  0
 46 53  1  0     0  0
 47  9  1  0     0  0
 48 10  1  0     0  0
 49 34  1  0     0  0
 50 28  2  0     0  0
 51 21  1  0     0  0
 52 20  1  0     0  0
 53 41  2  0     0  0
 54 41  1  0     0  0
 55 42  1  0     0  0
 56 42  2  0     0  0
 57 52  1  0     0  0
 58 51  1  0     0  0
 59 57  1  0     0  0
 60 58  1  0     0  0
 13 16  1  0     0  0
 35 50  1  0     0  0
 33 44  1  0     0  0
 17 14  1  0     0  0
  5  2  2  0     0  0
 32 46  2  0     0  0
M  END
>  <prID>
366

>  <IDDB>
94689

>  <pIC50_HIV_Integrase>
5.886056648

>  <Q>
-5.849793906

>  <Activity_Integrase>
Inactive_Integrase

NA
NA
NA
NA
$$$$

  Accelrys05311914342D 1   1.00000     0.00000     0

 54 59  0     0  0            999 V2000
   -3.6375   -1.1000    0.0000 C   0  0  0  0  0  0           0  0  0
    3.6417   -1.0958    0.0000 C   0  0  0  0  0  0           0  0  0
   -4.2458   -1.4458    0.0000 S   0  0  3  0  0  0           0  0  0
    4.2458   -1.4417    0.0000 S   0  0  3  0  0  0           0  0  0
    3.6458   -0.3917    0.0000 C   0  0  0  0  0  0           0  0  0
   -3.6375   -0.3958    0.0000 C   0  0  0  0  0  0           0  0  0
   -4.2625   -0.0375    0.0000 N   0  0  0  0  0  0           0  0  0
    4.2667   -0.0292    0.0000 N   0  0  0  0  0  0           0  0  0
   -3.0292   -0.0417    0.0000 C   0  0  0  0  0  0           0  0  0
    3.0375   -0.0375    0.0000 C   0  0  0  0  0  0           0  0  0
    3.0375   -1.4417    0.0000 C   0  0  0  0  0  0           0  0  0
   -3.0292   -1.4458    0.0000 C   0  0  0  0  0  0           0  0  0
   -2.4250   -1.1000    0.0000 C   0  0  0  0  0  0           0  0  0
    2.4292   -1.0917    0.0000 C   0  0  0  0  0  0           0  0  0
    0.0000   -1.1000    0.0000 C   0  0  0  0  0  0           0  0  0
   -2.4208   -0.3958    0.0000 C   0  0  0  0  0  0           0  0  0
    2.4333   -0.3875    0.0000 C   0  0  0  0  0  0           0  0  0
   -4.8875    0.3250    0.0000 N   0  0  0  0  0  0           0  0  0
    4.8917    0.3375    0.0000 N   0  0  0  0  0  0           0  0  0
   -4.8917    1.0458    0.0000 C   0  0  0  0  0  0           0  0  0
    4.8875    1.0583    0.0000 C   0  0  0  0  0  0           0  0  0
   -5.5208    1.4000    0.0000 C   0  0  0  0  0  0           0  0  0
    5.5125    1.4208    0.0000 C   0  0  0  0  0  0           0  0  0
   -0.6042   -1.4542    0.0000 N   0  0  0  0  0  0           0  0  0
    0.6125   -1.4500    0.0000 N   0  0  0  0  0  0           0  0  0
    4.7750   -0.7417    0.0000 O   0  0  0  0  0  0           0  0  0
   -4.2458   -2.2583    0.0000 O   0  0  0  0  0  0           0  0  0
   -4.8333   -0.8750    0.0000 O   0  0  0  0  0  0           0  0  0
    4.2375   -2.2583    0.0000 O   0  0  0  0  0  0           0  0  0
   -5.5208    2.1208    0.0000 C   0  0  0  0  0  0           0  0  0
    5.5083    2.1375    0.0000 C   0  0  0  0  0  0           0  0  0
    1.8208   -0.0375    0.0000 C   0  0  0  0  0  0           0  0  0
   -1.8167   -0.0458    0.0000 C   0  0  0  0  0  0           0  0  0
    1.8250   -1.4458    0.0000 C   0  0  0  0  0  0           0  0  0
   -1.8208   -1.4500    0.0000 C   0  0  0  0  0  0           0  0  0
    1.2167   -1.0958    0.0000 C   0  0  0  0  0  0           0  0  0
   -1.2125   -1.1000    0.0000 C   0  0  0  0  0  0           0  0  0
    0.0000   -0.3958    0.0000 O   0  0  0  0  0  0           0  0  0
   -5.0750   -1.6750    0.0000 O   0  0  0  0  0  0           0  0  0
    5.0375   -1.6208    0.0000 O   0  0  0  0  0  0           0  0  0
    4.2583    1.4125    0.0000 C   0  0  0  0  0  0           0  0  0
   -4.2667    1.4083    0.0000 C   0  0  0  0  0  0           0  0  0
   -4.8958    2.4875    0.0000 C   0  0  0  0  0  0           0  0  0
    4.8833    2.5000    0.0000 C   0  0  0  0  0  0           0  0  0
    3.0333    0.6667    0.0000 O   0  0  0  0  0  0           0  0  0
   -3.0375    0.6625    0.0000 O   0  0  0  0  0  0           0  0  0
   -1.2083   -0.4000    0.0000 C   0  0  0  0  0  0           0  0  0
    1.2125   -0.3917    0.0000 C   0  0  0  0  0  0           0  0  0
    6.1333    1.0625    0.0000 Br  0  0  0  0  0  0           0  0  0
   -6.1375    1.0458    0.0000 Br  0  0  0  0  0  0           0  0  0
    4.2583    2.1375    0.0000 C   0  0  0  0  0  0           0  0  0
   -4.2708    2.1250    0.0000 C   0  0  0  0  0  0           0  0  0
   -4.9000    3.2083    0.0000 Br  0  0  0  0  0  0           0  0  0
    4.8792    3.2208    0.0000 Br  0  0  0  0  0  0           0  0  0
  2 11  1  0     0  0
  3  1  1  0     0  0
  4  2  1  0     0  0
  5 10  1  0     0  0
  6  1  2  0     0  0
  7  6  1  0     0  0
  8  5  1  0     0  0
  9  6  1  0     0  0
 10 17  2  0     0  0
 11 14  2  0     0  0
 12  1  1  0     0  0
 13 12  2  0     0  0
 14 34  1  0     0  0
 15 24  1  0     0  0
 16  9  2  0     0  0
 17 32  1  0     0  0
 18  7  2  0     0  0
 19  8  2  0     0  0
 20 18  1  0     0  0
 21 19  1  0     0  0
 22 20  2  0     0  0
 23 21  2  0     0  0
 24 37  1  0     0  0
 25 15  1  0     0  0
 26  4  2  0     0  0
 27  3  2  0     0  0
 28  3  2  0     0  0
 29  4  2  0     0  0
 30 22  1  0     0  0
 31 23  1  0     0  0
 32 48  2  0     0  0
 33 16  1  0     0  0
 34 36  2  0     0  0
 35 13  1  0     0  0
 36 25  1  0     0  0
 37 35  2  0     0  0
 38 15  2  0     0  0
 39  3  1  0     0  0
 40  4  1  0     0  0
 41 21  1  0     0  0
 42 20  1  0     0  0
 43 52  1  0     0  0
 44 51  1  0     0  0
 45 10  1  0     0  0
 46  9  1  0     0  0
 47 33  2  0     0  0
 48 36  1  0     0  0
 49 23  1  0     0  0
 50 22  1  0     0  0
 51 41  2  0     0  0
 52 42  2  0     0  0
 53 43  1  0     0  0
 54 44  1  0     0  0
 13 16  1  0     0  0
 37 47  1  0     0  0
 43 30  2  0     0  0
 17 14  1  0     0  0
  5  2  2  0     0  0
 44 31  2  0     0  0
M  END
>  <prID>
367

>  <IDDB>
94690

>  <pIC50_HIV_Integrase>
6.22184875

>  <Q>
-4.340563803

>  <Activity_Integrase>
Active_Integrase

NA
NA
NA
NA
$$$$

  Accelrys05311914342D 1   1.00000     0.00000     0

 58 63  0     0  0            999 V2000
   -4.1833   -1.3042    0.0000 C   0  0  0  0  0  0           0  0  0
    4.2125   -1.2792    0.0000 C   0  0  0  0  0  0           0  0  0
   -4.8167   -1.6625    0.0000 S   0  0  3  0  0  0           0  0  0
    4.8375   -1.6375    0.0000 S   0  0  3  0  0  0           0  0  0
    4.2167   -0.5542    0.0000 C   0  0  0  0  0  0           0  0  0
   -4.1833   -0.5792    0.0000 C   0  0  0  0  0  0           0  0  0
   -4.8292   -0.2042    0.0000 N   0  0  0  0  0  0           0  0  0
    4.8583   -0.1750    0.0000 N   0  0  0  0  0  0           0  0  0
   -3.5542   -0.2125    0.0000 C   0  0  0  0  0  0           0  0  0
    3.5875   -0.1875    0.0000 C   0  0  0  0  0  0           0  0  0
    3.5833   -1.6375    0.0000 C   0  0  0  0  0  0           0  0  0
   -3.5542   -1.6625    0.0000 C   0  0  0  0  0  0           0  0  0
   -0.4208   -1.3042    0.0000 C   0  0  0  0  0  0           0  0  0
    0.2208   -1.6792    0.0000 C   0  0  0  0  0  0           0  0  0
   -2.9292   -1.3042    0.0000 C   0  0  0  0  0  0           0  0  0
    2.9583   -1.2750    0.0000 C   0  0  0  0  0  0           0  0  0
   -2.9250   -0.5792    0.0000 C   0  0  0  0  0  0           0  0  0
    2.9583   -0.5500    0.0000 C   0  0  0  0  0  0           0  0  0
   -1.0500   -1.6708    0.0000 N   0  0  0  0  0  0           0  0  0
    0.9250   -1.2708    0.0000 N   0  0  0  0  0  0           0  0  0
   -5.4792    0.1667    0.0000 N   0  0  0  0  0  0           0  0  0
    5.5000    0.2000    0.0000 N   0  0  0  0  0  0           0  0  0
   -5.4875    3.1458    0.0000 C   0  0  0  0  0  0           0  0  0
    5.4917    3.1792    0.0000 C   0  0  0  0  0  0           0  0  0
    4.8292   -2.4792    0.0000 O   0  0  0  0  0  0           0  0  0
    5.3792   -0.9167    0.0000 O   0  0  0  0  0  0           0  0  0
   -4.8167   -2.5000    0.0000 O   0  0  0  0  0  0           0  0  0
   -5.4208   -1.0750    0.0000 O   0  0  0  0  0  0           0  0  0
    2.3292   -0.1875    0.0000 C   0  0  0  0  0  0           0  0  0
   -2.3000   -0.2167    0.0000 C   0  0  0  0  0  0           0  0  0
   -2.3042   -1.6708    0.0000 C   0  0  0  0  0  0           0  0  0
    2.3375   -1.6375    0.0000 C   0  0  0  0  0  0           0  0  0
    5.4958    2.4333    0.0000 C   0  0  0  0  0  0           0  0  0
   -5.4833    2.4000    0.0000 C   0  0  0  0  0  0           0  0  0
    1.7000   -1.2792    0.0000 C   0  0  0  0  0  0           0  0  0
   -1.6792   -1.3083    0.0000 C   0  0  0  0  0  0           0  0  0
   -0.4250   -0.5792    0.0000 O   0  0  0  0  0  0           0  0  0
    0.2167   -2.4167    0.0000 O   0  0  0  0  0  0           0  0  0
    5.6542   -1.8208    0.0000 O   0  0  0  0  0  0           0  0  0
   -5.6667   -1.9000    0.0000 O   0  0  0  0  0  0           0  0  0
   -4.8417    3.5208    0.0000 O   0  0  0  0  0  0           0  0  0
    4.8417    3.5500    0.0000 O   0  0  0  0  0  0           0  0  0
    5.5000    0.9458    0.0000 C   0  0  0  0  0  0           0  0  0
   -5.4833    0.9125    0.0000 C   0  0  0  0  0  0           0  0  0
    4.8500    2.0625    0.0000 C   0  0  0  0  0  0           0  0  0
   -6.1208    2.0250    0.0000 C   0  0  0  0  0  0           0  0  0
   -4.8375    2.0250    0.0000 C   0  0  0  0  0  0           0  0  0
    6.1375    2.0625    0.0000 C   0  0  0  0  0  0           0  0  0
   -3.5625    0.5167    0.0000 O   0  0  0  0  0  0           0  0  0
    3.5792    0.5417    0.0000 O   0  0  0  0  0  0           0  0  0
   -1.6750   -0.5833    0.0000 C   0  0  0  0  0  0           0  0  0
    1.7000   -0.5542    0.0000 C   0  0  0  0  0  0           0  0  0
    6.1333    3.5542    0.0000 O   0  0  0  0  0  0           0  0  0
   -6.1292    3.5208    0.0000 O   0  0  0  0  0  0           0  0  0
    6.1417    1.3208    0.0000 C   0  0  0  0  0  0           0  0  0
    4.8500    1.3125    0.0000 C   0  0  0  0  0  0           0  0  0
   -4.8375    1.2833    0.0000 C   0  0  0  0  0  0           0  0  0
   -6.1208    1.2792    0.0000 C   0  0  0  0  0  0           0  0  0
  2 11  1  0     0  0
  3  1  1  0     0  0
  4  2  1  0     0  0
  5 10  1  0     0  0
  6  1  2  0     0  0
  7  6  1  0     0  0
  8  5  1  0     0  0
  9  6  1  0     0  0
 10 18  2  0     0  0
 11 16  2  0     0  0
 12  1  1  0     0  0
 13 19  1  0     0  0
 14 13  1  0     0  0
 15 12  2  0     0  0
 16 32  1  0     0  0
 17  9  2  0     0  0
 18 29  1  0     0  0
 19 36  1  0     0  0
 20 14  1  0     0  0
 21  7  2  0     0  0
 22  8  2  0     0  0
 23 34  1  0     0  0
 24 33  1  0     0  0
 25  4  2  0     0  0
 26  4  2  0     0  0
 27  3  2  0     0  0
 28  3  2  0     0  0
 29 52  2  0     0  0
 30 17  1  0     0  0
 31 15  1  0     0  0
 32 35  2  0     0  0
 33 45  1  0     0  0
 34 46  2  0     0  0
 35 20  1  0     0  0
 36 31  2  0     0  0
 37 13  2  0     0  0
 38 14  2  0     0  0
 39  4  1  0     0  0
 40  3  1  0     0  0
 41 23  2  0     0  0
 42 24  2  0     0  0
 43 22  1  0     0  0
 44 21  1  0     0  0
 45 56  2  0     0  0
 46 58  1  0     0  0
 47 57  2  0     0  0
 48 55  1  0     0  0
 49  9  1  0     0  0
 50 10  1  0     0  0
 51 30  2  0     0  0
 52 35  1  0     0  0
 53 24  1  0     0  0
 54 23  1  0     0  0
 55 43  2  0     0  0
 56 43  1  0     0  0
 57 44  1  0     0  0
 58 44  2  0     0  0
 15 17  1  0     0  0
 36 51  1  0     0  0
 34 47  1  0     0  0
 18 16  1  0     0  0
  5  2  2  0     0  0
 33 48  2  0     0  0
M  END
>  <prID>
368

>  <IDDB>
94691

>  <pIC50_HIV_Integrase>
6.349485002

>  <Q>
-6.191111927

>  <Activity_Integrase>
Active_Integrase

NA
NA
NA
NA
$$$$

  Accelrys05311914342D 1   1.00000     0.00000     0

 62 67  0     0  0            999 V2000
   -3.7833   -1.4750    0.0000 C   0  0  0  0  0  0           0  0  0
    3.8125   -1.4500    0.0000 C   0  0  0  0  0  0           0  0  0
   -4.3583   -1.8000    0.0000 S   0  0  3  0  0  0           0  0  0
    4.3792   -1.7750    0.0000 S   0  0  3  0  0  0           0  0  0
    3.8125   -0.7958    0.0000 C   0  0  0  0  0  0           0  0  0
   -3.7833   -0.8167    0.0000 C   0  0  0  0  0  0           0  0  0
   -4.3708   -0.4792    0.0000 N   0  0  0  0  0  0           0  0  0
    4.4000   -0.4500    0.0000 N   0  0  0  0  0  0           0  0  0
   -3.2167   -0.4833    0.0000 C   0  0  0  0  0  0           0  0  0
    3.2458   -0.4625    0.0000 C   0  0  0  0  0  0           0  0  0
    3.2417   -1.7750    0.0000 C   0  0  0  0  0  0           0  0  0
   -3.2167   -1.8000    0.0000 C   0  0  0  0  0  0           0  0  0
   -0.3833   -1.4750    0.0000 C   0  0  0  0  0  0           0  0  0
    0.2000   -1.8083    0.0000 C   0  0  0  0  0  0           0  0  0
   -2.6500   -1.4750    0.0000 C   0  0  0  0  0  0           0  0  0
    2.6792   -1.4458    0.0000 C   0  0  0  0  0  0           0  0  0
   -2.6500   -0.8167    0.0000 C   0  0  0  0  0  0           0  0  0
    2.6792   -0.7917    0.0000 C   0  0  0  0  0  0           0  0  0
   -0.9500   -1.8042    0.0000 N   0  0  0  0  0  0           0  0  0
    0.8375   -1.4417    0.0000 N   0  0  0  0  0  0           0  0  0
   -4.9583   -0.1417    0.0000 N   0  0  0  0  0  0           0  0  0
    4.9792   -0.1125    0.0000 N   0  0  0  0  0  0           0  0  0
   -4.3583   -2.5583    0.0000 O   0  0  0  0  0  0           0  0  0
    4.3708   -2.5375    0.0000 O   0  0  0  0  0  0           0  0  0
    4.8708   -1.1208    0.0000 O   0  0  0  0  0  0           0  0  0
   -4.9042   -1.2667    0.0000 O   0  0  0  0  0  0           0  0  0
   -5.5583    3.5667    0.0000 C   0  0  0  0  0  0           0  0  0
    5.5458    3.6042    0.0000 C   0  0  0  0  0  0           0  0  0
    5.5500    2.9250    0.0000 C   0  0  0  0  0  0           0  0  0
   -5.5542    2.8917    0.0000 C   0  0  0  0  0  0           0  0  0
   -2.0833   -0.4917    0.0000 C   0  0  0  0  0  0           0  0  0
    2.1083   -0.4625    0.0000 C   0  0  0  0  0  0           0  0  0
   -4.9667    2.5500    0.0000 C   0  0  0  0  0  0           0  0  0
    4.9708    2.5833    0.0000 C   0  0  0  0  0  0           0  0  0
   -2.0875   -1.8000    0.0000 C   0  0  0  0  0  0           0  0  0
    2.1125   -1.7792    0.0000 C   0  0  0  0  0  0           0  0  0
    1.5417   -1.4500    0.0000 C   0  0  0  0  0  0           0  0  0
   -1.5208   -1.4792    0.0000 C   0  0  0  0  0  0           0  0  0
   -0.3833   -0.8167    0.0000 O   0  0  0  0  0  0           0  0  0
    0.2000   -2.4833    0.0000 O   0  0  0  0  0  0           0  0  0
   -5.1292   -2.0125    0.0000 O   0  0  0  0  0  0           0  0  0
    5.1167   -1.9417    0.0000 O   0  0  0  0  0  0           0  0  0
   -4.9708    3.9083    0.0000 O   0  0  0  0  0  0           0  0  0
    4.9583    3.9417    0.0000 O   0  0  0  0  0  0           0  0  0
   -4.9625    0.5292    0.0000 C   0  0  0  0  0  0           0  0  0
    4.9792    0.5625    0.0000 C   0  0  0  0  0  0           0  0  0
    3.2375    0.2000    0.0000 O   0  0  0  0  0  0           0  0  0
   -3.2208    0.1750    0.0000 O   0  0  0  0  0  0           0  0  0
   -4.9625    1.8792    0.0000 C   0  0  0  0  0  0           0  0  0
    4.9750    1.9083    0.0000 C   0  0  0  0  0  0           0  0  0
   -1.5167   -0.8208    0.0000 C   0  0  0  0  0  0           0  0  0
    1.5375   -0.7958    0.0000 C   0  0  0  0  0  0           0  0  0
    6.1333    3.9417    0.0000 O   0  0  0  0  0  0           0  0  0
   -6.1375    3.9042    0.0000 O   0  0  0  0  0  0           0  0  0
    5.5583    0.9000    0.0000 C   0  0  0  0  0  0           0  0  0
    4.3917    0.8958    0.0000 C   0  0  0  0  0  0           0  0  0
   -4.3792    0.8708    0.0000 C   0  0  0  0  0  0           0  0  0
   -5.5417    0.8625    0.0000 C   0  0  0  0  0  0           0  0  0
    5.5583    1.5708    0.0000 C   0  0  0  0  0  0           0  0  0
    4.3917    1.5708    0.0000 C   0  0  0  0  0  0           0  0  0
   -4.3792    1.5417    0.0000 C   0  0  0  0  0  0           0  0  0
   -5.5458    1.5417    0.0000 C   0  0  0  0  0  0           0  0  0
  2 11  1  0     0  0
  3  1  1  0     0  0
  4  2  1  0     0  0
  5 10  1  0     0  0
  6  1  2  0     0  0
  7  6  1  0     0  0
  8  5  1  0     0  0
  9  6  1  0     0  0
 10 18  2  0     0  0
 11 16  2  0     0  0
 12  1  1  0     0  0
 13 19  1  0     0  0
 14 13  1  0     0  0
 15 12  2  0     0  0
 16 36  1  0     0  0
 17  9  2  0     0  0
 18 32  1  0     0  0
 19 38  1  0     0  0
 20 14  1  0     0  0
 21  7  2  0     0  0
 22  8  2  0     0  0
 23  3  2  0     0  0
 24  4  2  0     0  0
 25  4  2  0     0  0
 26  3  2  0     0  0
 27 30  1  0     0  0
 28 29  1  0     0  0
 29 34  2  0     0  0
 30 33  2  0     0  0
 31 17  1  0     0  0
 32 52  2  0     0  0
 33 49  1  0     0  0
 34 50  1  0     0  0
 35 15  1  0     0  0
 36 37  2  0     0  0
 37 20  1  0     0  0
 38 35  2  0     0  0
 39 13  2  0     0  0
 40 14  2  0     0  0
 41  3  1  0     0  0
 42  4  1  0     0  0
 43 27  2  0     0  0
 44 28  2  0     0  0
 45 21  1  0     0  0
 46 22  1  0     0  0
 47 10  1  0     0  0
 48  9  1  0     0  0
 49 62  2  0     0  0
 50 60  1  0     0  0
 51 31  2  0     0  0
 52 37  1  0     0  0
 53 28  1  0     0  0
 54 27  1  0     0  0
 55 46  2  0     0  0
 56 46  1  0     0  0
 57 45  1  0     0  0
 58 45  2  0     0  0
 59 55  1  0     0  0
 60 56  2  0     0  0
 61 57  2  0     0  0
 62 58  1  0     0  0
 15 17  1  0     0  0
 38 51  1  0     0  0
 49 61  1  0     0  0
 18 16  1  0     0  0
  5  2  2  0     0  0
 50 59  2  0     0  0
M  END
>  <prID>
369

>  <IDDB>
94692

>  <pIC50_HIV_Integrase>
5.638272164

>  <Q>
-5.661050872

>  <Activity_Integrase>
Inactive_Integrase

NA
NA
NA
NA
$$$$

  Accelrys05311914342D 1   1.00000     0.00000     0

 58 63  0     0  0            999 V2000
    3.4833   -0.9792    0.0000 C   0  0  0  0  0  0           0  0  0
   -3.4625   -1.0000    0.0000 C   0  0  0  0  0  0           0  0  0
    4.0000   -1.2792    0.0000 S   0  0  3  0  0  0           0  0  0
   -3.9833   -1.3000    0.0000 S   0  0  3  0  0  0           0  0  0
   -3.4625   -0.4000    0.0000 C   0  0  0  0  0  0           0  0  0
    3.4833   -0.3792    0.0000 C   0  0  0  0  0  0           0  0  0
    4.0167   -0.0708    0.0000 N   0  0  0  0  0  0           0  0  0
   -3.9958   -0.0958    0.0000 N   0  0  0  0  0  0           0  0  0
    2.9625   -0.0792    0.0000 C   0  0  0  0  0  0           0  0  0
   -2.9417   -0.1000    0.0000 C   0  0  0  0  0  0           0  0  0
   -2.9417   -1.3000    0.0000 C   0  0  0  0  0  0           0  0  0
    2.9583   -1.2792    0.0000 C   0  0  0  0  0  0           0  0  0
    0.1792   -1.3125    0.0000 C   0  0  0  0  0  0           0  0  0
   -0.3500   -1.0000    0.0000 C   0  0  0  0  0  0           0  0  0
    2.4458   -0.9792    0.0000 C   0  0  0  0  0  0           0  0  0
   -2.4208   -1.0000    0.0000 C   0  0  0  0  0  0           0  0  0
    2.4458   -0.3792    0.0000 C   0  0  0  0  0  0           0  0  0
   -2.4208   -0.4000    0.0000 C   0  0  0  0  0  0           0  0  0
    4.5458    0.2417    0.0000 N   0  0  0  0  0  0           0  0  0
   -4.5292    0.2125    0.0000 N   0  0  0  0  0  0           0  0  0
   -0.8667   -1.3083    0.0000 N   0  0  0  0  0  0           0  0  0
    0.7625   -0.9750    0.0000 N   0  0  0  0  0  0           0  0  0
    5.6042    2.0917    0.0000 C   0  0  0  0  0  0           0  0  0
   -5.6042    2.0625    0.0000 C   0  0  0  0  0  0           0  0  0
   -3.9833   -1.9958    0.0000 O   0  0  0  0  0  0           0  0  0
   -4.4833   -0.8125    0.0000 O   0  0  0  0  0  0           0  0  0
    4.4500   -0.6833    0.0000 O   0  0  0  0  0  0           0  0  0
    3.9917   -1.9792    0.0000 O   0  0  0  0  0  0           0  0  0
   -5.0667    1.7500    0.0000 C   0  0  0  0  0  0           0  0  0
    5.0792    1.7792    0.0000 C   0  0  0  0  0  0           0  0  0
    1.9250   -0.0792    0.0000 C   0  0  0  0  0  0           0  0  0
   -1.9042   -0.1042    0.0000 C   0  0  0  0  0  0           0  0  0
   -1.9083   -1.3042    0.0000 C   0  0  0  0  0  0           0  0  0
    1.9292   -1.2792    0.0000 C   0  0  0  0  0  0           0  0  0
   -1.3875   -1.0083    0.0000 C   0  0  0  0  0  0           0  0  0
    1.4083   -0.9792    0.0000 C   0  0  0  0  0  0           0  0  0
    0.1792   -1.9250    0.0000 O   0  0  0  0  0  0           0  0  0
   -0.3542   -0.4000    0.0000 O   0  0  0  0  0  0           0  0  0
   -4.6875   -1.4958    0.0000 O   0  0  0  0  0  0           0  0  0
    4.6750   -1.4333    0.0000 O   0  0  0  0  0  0           0  0  0
    5.0792    1.1667    0.0000 C   0  0  0  0  0  0           0  0  0
   -5.0667    1.1333    0.0000 C   0  0  0  0  0  0           0  0  0
    6.1375    1.7833    0.0000 O   0  0  0  0  0  0           0  0  0
   -6.1375    1.7542    0.0000 O   0  0  0  0  0  0           0  0  0
    4.5458    0.8583    0.0000 C   0  0  0  0  0  0           0  0  0
   -4.5333    0.8292    0.0000 C   0  0  0  0  0  0           0  0  0
   -2.9458    0.5000    0.0000 O   0  0  0  0  0  0           0  0  0
    2.9583    0.5208    0.0000 O   0  0  0  0  0  0           0  0  0
   -1.3833   -0.4083    0.0000 C   0  0  0  0  0  0           0  0  0
    1.4042   -0.3792    0.0000 C   0  0  0  0  0  0           0  0  0
   -5.6083    2.6750    0.0000 O   0  0  0  0  0  0           0  0  0
    5.6000    2.7042    0.0000 O   0  0  0  0  0  0           0  0  0
   -4.5333    2.0625    0.0000 C   0  0  0  0  0  0           0  0  0
    4.5417    2.0875    0.0000 C   0  0  0  0  0  0           0  0  0
    4.0125    1.7792    0.0000 C   0  0  0  0  0  0           0  0  0
   -4.0000    1.7500    0.0000 C   0  0  0  0  0  0           0  0  0
    4.0125    1.1625    0.0000 C   0  0  0  0  0  0           0  0  0
   -4.0000    1.1375    0.0000 C   0  0  0  0  0  0           0  0  0
  2 11  1  0     0  0
  3  1  1  0     0  0
  4  2  1  0     0  0
  5 10  1  0     0  0
  6  1  2  0     0  0
  7  6  1  0     0  0
  8  5  1  0     0  0
  9  6  1  0     0  0
 10 18  2  0     0  0
 11 16  2  0     0  0
 12  1  1  0     0  0
 13 22  1  0     0  0
 14 13  1  0     0  0
 15 12  2  0     0  0
 16 33  1  0     0  0
 17  9  2  0     0  0
 18 32  1  0     0  0
 19  7  2  0     0  0
 20  8  2  0     0  0
 21 14  1  0     0  0
 22 36  1  0     0  0
 23 30  1  0     0  0
 24 29  1  0     0  0
 25  4  2  0     0  0
 26  4  2  0     0  0
 27  3  2  0     0  0
 28  3  2  0     0  0
 29 42  1  0     0  0
 30 41  1  0     0  0
 31 17  1  0     0  0
 32 49  2  0     0  0
 33 35  2  0     0  0
 34 15  1  0     0  0
 35 21  1  0     0  0
 36 34  2  0     0  0
 37 13  2  0     0  0
 38 14  2  0     0  0
 39  4  1  0     0  0
 40  3  1  0     0  0
 41 45  2  0     0  0
 42 46  2  0     0  0
 43 23  2  0     0  0
 44 24  2  0     0  0
 45 19  1  0     0  0
 46 20  1  0     0  0
 47 10  1  0     0  0
 48  9  1  0     0  0
 49 35  1  0     0  0
 50 31  2  0     0  0
 51 24  1  0     0  0
 52 23  1  0     0  0
 53 56  1  0     0  0
 54 55  1  0     0  0
 55 57  2  0     0  0
 56 58  2  0     0  0
 57 45  1  0     0  0
 58 46  1  0     0  0
 17 15  1  0     0  0
 50 36  1  0     0  0
 54 30  2  0     0  0
 18 16  1  0     0  0
  5  2  2  0     0  0
 53 29  2  0     0  0
M  END
>  <prID>
370

>  <IDDB>
94693

>  <pIC50_HIV_Integrase>
6

>  <Q>
-6.187306536

>  <Activity_Integrase>
Inactive_Integrase

NA
NA
NA
NA
$$$$

  Accelrys05311914342D 1   1.00000     0.00000     0

 68 73  0     0  0            999 V2000
    3.4833   -1.4583    0.0000 C   0  0  0  0  0  0           0  0  0
   -3.4583   -1.4792    0.0000 C   0  0  0  0  0  0           0  0  0
    4.0000   -1.7583    0.0000 S   0  0  3  0  0  0           0  0  0
   -3.9833   -1.7792    0.0000 S   0  0  3  0  0  0           0  0  0
   -3.4583   -0.8792    0.0000 C   0  0  0  0  0  0           0  0  0
    3.4833   -0.8583    0.0000 C   0  0  0  0  0  0           0  0  0
    4.0167   -0.5458    0.0000 N   0  0  0  0  0  0           0  0  0
   -3.9958   -0.5750    0.0000 N   0  0  0  0  0  0           0  0  0
    2.9625   -0.5583    0.0000 C   0  0  0  0  0  0           0  0  0
   -2.9417   -0.5792    0.0000 C   0  0  0  0  0  0           0  0  0
   -2.9417   -1.7792    0.0000 C   0  0  0  0  0  0           0  0  0
    2.9625   -1.7583    0.0000 C   0  0  0  0  0  0           0  0  0
    0.1792   -1.7875    0.0000 C   0  0  0  0  0  0           0  0  0
   -0.3500   -1.4792    0.0000 C   0  0  0  0  0  0           0  0  0
    2.4458   -1.4583    0.0000 C   0  0  0  0  0  0           0  0  0
   -2.4208   -1.4792    0.0000 C   0  0  0  0  0  0           0  0  0
    2.4458   -0.8583    0.0000 C   0  0  0  0  0  0           0  0  0
   -2.4208   -0.8792    0.0000 C   0  0  0  0  0  0           0  0  0
    0.7625   -1.4542    0.0000 N   0  0  0  0  0  0           0  0  0
   -0.8667   -1.7833    0.0000 N   0  0  0  0  0  0           0  0  0
    4.5458   -0.2375    0.0000 N   0  0  0  0  0  0           0  0  0
   -4.5292   -0.2625    0.0000 N   0  0  0  0  0  0           0  0  0
    4.0042    2.5333    0.0000 C   0  0  0  0  0  0           0  0  0
   -4.0042    2.5083    0.0000 C   0  0  0  0  0  0           0  0  0
   -4.5375    2.2000    0.0000 C   0  0  3  0  0  0           0  0  0
    4.5375    2.2250    0.0000 C   0  0  3  0  0  0           0  0  0
   -4.4833   -1.2917    0.0000 O   0  0  0  0  0  0           0  0  0
    3.9917   -2.4542    0.0000 O   0  0  0  0  0  0           0  0  0
    4.4500   -1.1583    0.0000 O   0  0  0  0  0  0           0  0  0
   -3.9833   -2.4708    0.0000 O   0  0  0  0  0  0           0  0  0
    1.9250   -0.5583    0.0000 C   0  0  0  0  0  0           0  0  0
   -1.9042   -0.5792    0.0000 C   0  0  0  0  0  0           0  0  0
    5.6000    2.2292    0.0000 C   0  0  0  0  0  0           0  0  0
   -5.6083    2.2042    0.0000 C   0  0  0  0  0  0           0  0  0
    1.9292   -1.7583    0.0000 C   0  0  0  0  0  0           0  0  0
   -1.9042   -1.7792    0.0000 C   0  0  0  0  0  0           0  0  0
    5.0708    2.5375    0.0000 C   0  0  0  0  0  0           0  0  0
   -5.0708    2.5042    0.0000 C   0  0  0  0  0  0           0  0  0
    4.5417    1.6083    0.0000 C   0  0  0  0  0  0           0  0  0
   -4.5333    1.5833    0.0000 C   0  0  0  0  0  0           0  0  0
   -1.3875   -1.4833    0.0000 C   0  0  0  0  0  0           0  0  0
    1.4083   -1.4583    0.0000 C   0  0  0  0  0  0           0  0  0
    0.1792   -2.4042    0.0000 O   0  0  0  0  0  0           0  0  0
   -0.3542   -0.8792    0.0000 O   0  0  0  0  0  0           0  0  0
    4.6750   -1.9083    0.0000 O   0  0  0  0  0  0           0  0  0
   -4.6875   -1.9708    0.0000 O   0  0  0  0  0  0           0  0  0
    4.0000    3.1500    0.0000 O   0  0  0  0  0  0           0  0  0
   -4.0083    3.1250    0.0000 O   0  0  0  0  0  0           0  0  0
    5.6000    1.6125    0.0000 O   0  0  0  0  0  0           0  0  0
   -5.6083    1.5833    0.0000 O   0  0  0  0  0  0           0  0  0
   -4.5333    0.3500    0.0000 C   0  0  0  0  0  0           0  0  0
    4.5458    0.3792    0.0000 C   0  0  0  0  0  0           0  0  0
   -5.0667    1.2708    0.0000 C   0  0  0  0  0  0           0  0  0
    5.0792    1.3000    0.0000 C   0  0  0  0  0  0           0  0  0
    4.0125    1.3000    0.0000 C   0  0  0  0  0  0           0  0  0
   -4.0000    1.2750    0.0000 C   0  0  0  0  0  0           0  0  0
   -2.9458    0.0250    0.0000 O   0  0  0  0  0  0           0  0  0
    2.9583    0.0458    0.0000 O   0  0  0  0  0  0           0  0  0
   -1.3833   -0.8833    0.0000 C   0  0  0  0  0  0           0  0  0
    1.4042   -0.8583    0.0000 C   0  0  0  0  0  0           0  0  0
    3.4708    2.2292    0.0000 O   0  0  0  0  0  0           0  0  0
   -3.4750    2.2042    0.0000 O   0  0  0  0  0  0           0  0  0
   -6.1375    2.5083    0.0000 O   0  0  0  0  0  0           0  0  0
    6.1333    2.5417    0.0000 O   0  0  0  0  0  0           0  0  0
   -5.0667    0.6542    0.0000 C   0  0  0  0  0  0           0  0  0
    4.0125    0.6833    0.0000 C   0  0  0  0  0  0           0  0  0
    5.0792    0.6875    0.0000 C   0  0  0  0  0  0           0  0  0
   -4.0000    0.6625    0.0000 C   0  0  0  0  0  0           0  0  0
  2 11  1  0     0  0
  3  1  1  0     0  0
  4  2  1  0     0  0
  5 10  1  0     0  0
  6  1  2  0     0  0
  7  6  1  0     0  0
  8  5  1  0     0  0
  9  6  1  0     0  0
 10 18  2  0     0  0
 11 16  2  0     0  0
 12  1  1  0     0  0
 13 19  1  0     0  0
 14 13  1  0     0  0
 15 12  2  0     0  0
 16 36  1  0     0  0
 17  9  2  0     0  0
 18 32  1  0     0  0
 19 42  1  0     0  0
 20 14  1  0     0  0
 21  7  2  0     0  0
 22  8  2  0     0  0
 23 26  1  0     0  0
 24 25  1  0     0  0
 25 40  1  0     0  0
 26 39  1  0     0  0
 27  4  2  0     0  0
 28  3  2  0     0  0
 29  3  2  0     0  0
 30  4  2  0     0  0
 31 17  1  0     0  0
 32 59  2  0     0  0
 33 37  1  0     0  0
 34 38  1  0     0  0
 35 15  1  0     0  0
 36 41  2  0     0  0
 37 26  1  0     0  0
 38 25  1  0     0  0
 39 55  1  0     0  0
 40 53  2  0     0  0
 41 20  1  0     0  0
 42 35  2  0     0  0
 43 13  2  0     0  0
 44 14  2  0     0  0
 45  3  1  0     0  0
 46  4  1  0     0  0
 47 23  2  0     0  0
 48 24  2  0     0  0
 49 33  2  0     0  0
 50 34  2  0     0  0
 51 22  1  0     0  0
 52 21  1  0     0  0
 53 65  1  0     0  0
 54 67  1  0     0  0
 55 66  2  0     0  0
 56 68  2  0     0  0
 57 10  1  0     0  0
 58  9  1  0     0  0
 59 41  1  0     0  0
 60 31  2  0     0  0
 61 23  1  0     0  0
 62 24  1  0     0  0
 63 34  1  0     0  0
 64 33  1  0     0  0
 65 51  2  0     0  0
 66 52  1  0     0  0
 67 52  2  0     0  0
 68 51  1  0     0  0
 17 15  1  0     0  0
 60 42  1  0     0  0
 39 54  2  0     0  0
 18 16  1  0     0  0
  5  2  2  0     0  0
 40 56  1  0     0  0
M  END
>  <prID>
371

>  <IDDB>
94694

>  <pIC50_HIV_Integrase>
6

>  <Q>
-9.129954639

>  <Activity_Integrase>
Inactive_Integrase

NA
NA
NA
NA
$$$$

  Accelrys05311914342D 1   1.00000     0.00000     0

 42 45  0     0  0            999 V2000
   -1.3583   -1.3583    0.0000 C   0  0  0  0  0  0           0  0  0
    1.3625   -1.3667    0.0000 C   0  0  0  0  0  0           0  0  0
   -1.3583   -0.5750    0.0000 C   0  0  0  0  0  0           0  0  0
    1.3667   -0.5792    0.0000 C   0  0  0  0  0  0           0  0  0
   -2.0417   -1.7542    0.0000 S   0  0  3  0  0  0           0  0  0
    2.0417   -1.7583    0.0000 S   0  0  3  0  0  0           0  0  0
    0.0042   -0.5750    0.0000 C   0  0  0  0  0  0           0  0  0
   -0.6750   -0.1750    0.0000 C   0  0  0  0  0  0           0  0  0
    0.6833   -0.1792    0.0000 C   0  0  0  0  0  0           0  0  0
   -2.0417   -0.1792    0.0000 N   0  0  0  0  0  0           0  0  0
    2.0417   -0.1792    0.0000 N   0  0  0  0  0  0           0  0  0
    0.0000   -1.3583    0.0000 C   0  0  0  0  0  0           0  0  0
   -0.6750   -1.7542    0.0000 C   0  0  0  0  0  0           0  0  0
    0.6792   -1.7583    0.0000 C   0  0  0  0  0  0           0  0  0
   -2.7250    0.2167    0.0000 N   0  0  0  0  0  0           0  0  0
    2.7208    0.2208    0.0000 N   0  0  0  0  0  0           0  0  0
   -5.4625    1.8000    0.0000 C   0  0  0  0  0  0           0  0  0
    5.4458    1.8042    0.0000 C   0  0  0  0  0  0           0  0  0
    2.0375   -2.5458    0.0000 O   0  0  0  0  0  0           0  0  0
    2.7208   -1.3583    0.0000 O   0  0  0  0  0  0           0  0  0
   -2.0417   -2.5375    0.0000 O   0  0  0  0  0  0           0  0  0
   -2.7250   -1.3583    0.0000 O   0  0  0  0  0  0           0  0  0
   -4.7750    1.4000    0.0000 C   0  0  0  0  0  0           0  0  0
    4.7667    1.4083    0.0000 C   0  0  0  0  0  0           0  0  0
   -2.8042   -1.9542    0.0000 O   0  0  0  0  0  0           0  0  0
    2.8042   -1.9625    0.0000 O   0  0  0  0  0  0           0  0  0
   -6.1458    1.4083    0.0000 O   0  0  0  0  0  0           0  0  0
    6.1250    1.4125    0.0000 O   0  0  0  0  0  0           0  0  0
   -0.6833    0.6125    0.0000 O   0  0  0  0  0  0           0  0  0
    0.6792    0.6083    0.0000 O   0  0  0  0  0  0           0  0  0
   -3.4083    0.6083    0.0000 C   0  0  0  0  0  0           0  0  0
    3.4042    0.6167    0.0000 C   0  0  0  0  0  0           0  0  0
    4.7667    0.6208    0.0000 C   0  0  0  0  0  0           0  0  0
    4.0833    1.8000    0.0000 C   0  0  0  0  0  0           0  0  0
   -4.0917    1.7958    0.0000 C   0  0  0  0  0  0           0  0  0
   -4.7792    0.6083    0.0000 C   0  0  0  0  0  0           0  0  0
    5.4417    2.5958    0.0000 O   0  0  0  0  0  0           0  0  0
   -5.4667    2.5875    0.0000 O   0  0  0  0  0  0           0  0  0
   -3.4083    1.4000    0.0000 C   0  0  0  0  0  0           0  0  0
   -4.0917    0.2125    0.0000 C   0  0  0  0  0  0           0  0  0
    4.0917    0.2208    0.0000 C   0  0  0  0  0  0           0  0  0
    3.4000    1.4042    0.0000 C   0  0  0  0  0  0           0  0  0
  2 14  1  0     0  0
  3  1  1  0     0  0
  4  9  1  0     0  0
  5  1  1  0     0  0
  6  2  1  0     0  0
  7  8  1  0     0  0
  8  3  2  0     0  0
  9  7  2  0     0  0
 10  3  1  0     0  0
 11  4  1  0     0  0
 12 13  1  0     0  0
 13  1  2  0     0  0
 14 12  2  0     0  0
 15 10  2  0     0  0
 16 11  2  0     0  0
 17 23  1  0     0  0
 18 24  1  0     0  0
 19  6  2  0     0  0
 20  6  2  0     0  0
 21  5  2  0     0  0
 22  5  2  0     0  0
 23 36  2  0     0  0
 24 34  1  0     0  0
 25  5  1  0     0  0
 26  6  1  0     0  0
 27 17  2  0     0  0
 28 18  2  0     0  0
 29  8  1  0     0  0
 30  9  1  0     0  0
 31 15  1  0     0  0
 32 16  1  0     0  0
 33 41  1  0     0  0
 34 42  2  0     0  0
 35 39  2  0     0  0
 36 40  1  0     0  0
 37 18  1  0     0  0
 38 17  1  0     0  0
 39 31  1  0     0  0
 40 31  2  0     0  0
 41 32  2  0     0  0
 42 32  1  0     0  0
 12  7  1  0     0  0
  2  4  2  0     0  0
 23 35  1  0     0  0
 24 33  2  0     0  0
M  END
>  <prID>
372

>  <IDDB>
94695

>  <pIC50_HIV_Integrase>
5.455931956

>  <Q>
-5.369381422

>  <Activity_Integrase>
Inactive_Integrase

NA
NA
NA
NA
$$$$

  Accelrys05311914342D 1   1.00000     0.00000     0

 46 49  0     0  0            999 V2000
   -1.1083   -1.2292    0.0000 C   0  0  0  0  0  0           0  0  0
    1.1167   -1.2333    0.0000 C   0  0  0  0  0  0           0  0  0
   -1.1083   -0.5833    0.0000 C   0  0  0  0  0  0           0  0  0
    1.1167   -0.5875    0.0000 C   0  0  0  0  0  0           0  0  0
   -1.6667   -1.5458    0.0000 S   0  0  3  0  0  0           0  0  0
    1.6708   -1.5542    0.0000 S   0  0  3  0  0  0           0  0  0
    0.0042   -0.5833    0.0000 C   0  0  0  0  0  0           0  0  0
   -0.5542   -0.2583    0.0000 C   0  0  0  0  0  0           0  0  0
    0.5583   -0.2583    0.0000 C   0  0  0  0  0  0           0  0  0
   -1.6667   -0.2583    0.0000 N   0  0  0  0  0  0           0  0  0
    1.6708   -0.2583    0.0000 N   0  0  0  0  0  0           0  0  0
    0.0000   -1.2292    0.0000 C   0  0  0  0  0  0           0  0  0
   -0.5542   -1.5458    0.0000 C   0  0  0  0  0  0           0  0  0
    0.5583   -1.5500    0.0000 C   0  0  0  0  0  0           0  0  0
   -2.2292    0.0625    0.0000 N   0  0  0  0  0  0           0  0  0
    2.2292    0.0625    0.0000 N   0  0  0  0  0  0           0  0  0
   -1.6708   -2.1917    0.0000 O   0  0  0  0  0  0           0  0  0
   -2.2292   -1.2250    0.0000 O   0  0  0  0  0  0           0  0  0
    1.6708   -2.2000    0.0000 O   0  0  0  0  0  0           0  0  0
    2.2292   -1.2292    0.0000 O   0  0  0  0  0  0           0  0  0
   -5.5875    1.3625    0.0000 C   0  0  0  0  0  0           0  0  0
    5.5708    1.3667    0.0000 C   0  0  0  0  0  0           0  0  0
   -5.0292    1.0375    0.0000 C   0  0  0  0  0  0           0  0  0
    5.0125    1.0417    0.0000 C   0  0  0  0  0  0           0  0  0
   -4.4667    1.3583    0.0000 C   0  0  0  0  0  0           0  0  0
    4.4583    1.3625    0.0000 C   0  0  0  0  0  0           0  0  0
   -2.2958   -1.7125    0.0000 O   0  0  0  0  0  0           0  0  0
    2.2958   -1.7208    0.0000 O   0  0  0  0  0  0           0  0  0
   -6.1458    1.0417    0.0000 O   0  0  0  0  0  0           0  0  0
    6.1250    1.0417    0.0000 O   0  0  0  0  0  0           0  0  0
   -0.5583    0.3875    0.0000 O   0  0  0  0  0  0           0  0  0
    0.5583    0.3833    0.0000 O   0  0  0  0  0  0           0  0  0
   -2.7875    0.3833    0.0000 C   0  0  0  0  0  0           0  0  0
    2.7833    0.3917    0.0000 C   0  0  0  0  0  0           0  0  0
   -3.9042    1.0333    0.0000 C   0  0  0  0  0  0           0  0  0
    3.9000    1.0375    0.0000 C   0  0  0  0  0  0           0  0  0
    5.5667    2.0125    0.0000 O   0  0  0  0  0  0           0  0  0
   -5.5917    2.0042    0.0000 O   0  0  0  0  0  0           0  0  0
   -2.7875    1.0292    0.0000 C   0  0  0  0  0  0           0  0  0
   -3.3458    0.0625    0.0000 C   0  0  0  0  0  0           0  0  0
    3.3458    0.0667    0.0000 C   0  0  0  0  0  0           0  0  0
    2.7792    1.0333    0.0000 C   0  0  0  0  0  0           0  0  0
   -3.3458    1.3542    0.0000 C   0  0  0  0  0  0           0  0  0
   -3.9042    0.3833    0.0000 C   0  0  0  0  0  0           0  0  0
    3.9000    0.3917    0.0000 C   0  0  0  0  0  0           0  0  0
    3.3375    1.3583    0.0000 C   0  0  0  0  0  0           0  0  0
  2 14  1  0     0  0
  3  1  1  0     0  0
  4  9  1  0     0  0
  5  1  1  0     0  0
  6  2  1  0     0  0
  7  8  1  0     0  0
  8  3  2  0     0  0
  9  7  2  0     0  0
 10  3  1  0     0  0
 11  4  1  0     0  0
 12 13  1  0     0  0
 13  1  2  0     0  0
 14 12  2  0     0  0
 15 10  2  0     0  0
 16 11  2  0     0  0
 17  5  2  0     0  0
 18  5  2  0     0  0
 19  6  2  0     0  0
 20  6  2  0     0  0
 21 23  1  0     0  0
 22 24  1  0     0  0
 23 25  2  0     0  0
 24 26  2  0     0  0
 25 35  1  0     0  0
 26 36  1  0     0  0
 27  5  1  0     0  0
 28  6  1  0     0  0
 29 21  2  0     0  0
 30 22  2  0     0  0
 31  8  1  0     0  0
 32  9  1  0     0  0
 33 15  1  0     0  0
 34 16  1  0     0  0
 35 44  2  0     0  0
 36 46  1  0     0  0
 37 22  1  0     0  0
 38 21  1  0     0  0
 39 33  1  0     0  0
 40 33  2  0     0  0
 41 34  2  0     0  0
 42 34  1  0     0  0
 43 39  2  0     0  0
 44 40  1  0     0  0
 45 41  1  0     0  0
 46 42  2  0     0  0
 12  7  1  0     0  0
  2  4  2  0     0  0
 35 43  1  0     0  0
 36 45  2  0     0  0
M  END
>  <prID>
373

>  <IDDB>
94696

>  <pIC50_HIV_Integrase>
6.124938737

>  <Q>
-4.839320368

>  <Activity_Integrase>
Active_Integrase

NA
NA
NA
NA
$$$$

  Accelrys05311914342D 1   1.00000     0.00000     0

 52 56  0     0  0            999 V2000
    2.6875   -4.2208    0.0000 C   0  0  2  0  0  0           0  0  0
    1.9417   -4.5541    0.0000 C   0  0  2  0  0  0           0  0  0
    3.2334   -4.8292    0.0000 C   0  0  0  0  0  0           0  0  0
    2.8250   -5.5291    0.0000 C   0  0  0  0  0  0           0  0  0
    2.0250   -5.3583    0.0000 O   0  0  0  0  0  0           0  0  0
    2.6833   -3.4042    0.0000 C   0  0  0  0  0  0           0  0  0
    1.2375   -4.1458    0.0000 C   0  0  0  0  0  0           0  0  0
    7.3708   -2.4792    0.0000 C   0  0  0  0  0  0           0  0  0
    7.4541   -3.3416    0.0000 C   0  0  2  0  0  0           0  0  0
    4.0375   -4.8292    0.0000 C   0  0  0  0  0  0           0  0  0
    4.5500   -4.1916    0.0000 C   0  0  0  0  0  0           0  0  0
    6.0417   -3.8917    0.0000 C   0  0  0  0  0  0           0  0  0
    0.5334   -4.5458    0.0000 C   0  0  0  0  0  0           0  0  0
    5.4000   -4.3500    0.0000 C   0  0  0  0  0  0           0  0  0
    6.9042   -4.0125    0.0000 O   0  0  0  0  0  0           0  0  0
   -0.1708   -4.1458    0.0000 C   0  0  0  0  0  0           0  0  0
    3.2209   -6.2292    0.0000 C   0  0  0  0  0  0           0  0  0
    9.6333   -1.6167    0.0000 C   0  0  0  0  0  0           0  0  0
    3.3417   -2.7208    0.0000 O   0  0  0  0  0  0           0  0  0
    8.3083   -3.4875    0.0000 C   0  0  0  0  0  0           0  0  0
   -0.1708   -3.3291    0.0000 C   0  0  0  0  0  0           0  0  0
   10.4250   -1.9791    0.0000 C   0  0  0  0  0  0           0  0  0
    8.9250   -2.1209    0.0000 C   0  0  0  0  0  0           0  0  0
    9.0125   -2.9791    0.0000 C   0  0  0  0  0  0           0  0  0
    1.9792   -2.9958    0.0000 O   0  0  0  0  0  0           0  0  0
    1.2375   -3.3291    0.0000 C   0  0  0  0  0  0           0  0  0
    8.0792   -1.9708    0.0000 O   0  0  0  0  0  0           0  0  0
    5.9375   -3.2208    0.0000 O   0  0  0  0  0  0           0  0  0
    4.4417   -5.5333    0.0000 C   0  0  0  0  0  0           0  0  0
    4.0333   -6.2375    0.0000 C   0  0  0  0  0  0           0  0  0
    0.5334   -2.9167    0.0000 C   0  0  0  0  0  0           0  0  0
   10.5042   -2.8417    0.0000 C   0  0  0  0  0  0           0  0  0
    6.5750   -2.1166    0.0000 O   0  0  0  0  0  0           0  0  0
    9.8000   -3.3416    0.0000 C   0  0  0  0  0  0           0  0  0
   -0.8792   -4.5458    0.0000 O   0  0  0  0  0  0           0  0  0
    9.5458   -0.7458    0.0000 O   0  0  0  0  0  0           0  0  0
    2.8041   -6.9333    0.0000 O   0  0  0  0  0  0           0  0  0
   -0.8792   -2.9208    0.0000 O   0  0  0  0  0  0           0  0  0
   11.1208   -1.4750    0.0000 O   0  0  0  0  0  0           0  0  0
    4.1862   -2.3435    0.0000 C   0  0  1  0  0  0           0  0  0
    4.3926   -2.9051    0.0000 C   0  0  0  0  0  0           0  0  0
    2.9384    0.1580    0.0000 C   0  0  0  0  0  0           0  0  0
    4.2419   -1.5826    0.0000 C   0  0  0  0  0  0           0  0  0
    3.4851    0.7729    0.0000 C   0  0  0  0  0  0           0  0  0
    3.1765   -0.6215    0.0000 C   0  0  0  0  0  0           0  0  0
    3.9923   -0.7994    0.0000 C   0  0  0  0  0  0           0  0  0
    4.1660   -3.6100    0.0000 O   0  0  0  0  0  0           0  0  0
    4.2990    0.5914    0.0000 C   0  0  0  0  0  0           0  0  0
    5.3107   -2.6246    0.0000 O   0  0  0  0  0  0           0  0  0
    4.5426   -0.1957    0.0000 C   0  0  0  0  0  0           0  0  0
    2.0798    0.3213    0.0000 O   0  0  0  0  0  0           0  0  0
    3.2466    1.5504    0.0000 O   0  0  0  0  0  0           0  0  0
 14 11  2  0     0  0
 15 12  1  0     0  0
 16 13  2  0     0  0
 17  4  1  0     0  0
 18 23  2  0     0  0
 19  6  1  0     0  0
 20  9  1  0     0  0
 21 31  2  0     0  0
 22 32  2  0     0  0
 23 24  1  0     0  0
 24 20  1  0     0  0
 25  6  2  0     0  0
 26  7  2  0     0  0
 27  8  2  0     0  0
 28 12  2  0     0  0
 29 10  2  0     0  0
 30 29  1  0     0  0
 31 26  1  0     0  0
 32 34  1  0     0  0
 33  8  1  0     0  0
 34 24  2  0     0  0
 35 16  1  0     0  0
 36 18  1  0     0  0
 37 17  1  0     0  0
 38 21  1  0     0  0
 39 22  1  0     0  0
  5  4  1  0     0  0
 30 17  2  0     0  0
 21 16  1  0     0  0
 22 18  1  0     0  0
  2  1  1  0     0  0
  3  1  1  0     0  0
  4  3  2  0     0  0
  5  2  1  0     0  0
  1  6  1  1     0  0
  2  7  1  6     0  0
  9  8  1  1     0  0
  9 15  1  0     0  0
 10  3  1  0     0  0
 11 10  1  0     0  0
 12 14  1  0     0  0
 13  7  1  0     0  0
 40 41  1  6     0  0
 42 45  1  0     0  0
 43 40  1  0     0  0
 44 48  1  0     0  0
 45 46  2  0     0  0
 46 43  1  0     0  0
 47 41  2  0     0  0
 48 50  2  0     0  0
 49 41  1  0     0  0
 50 46  1  0     0  0
 51 42  1  0     0  0
 52 44  1  0     0  0
 44 42  2  0     0  0
 19 40  1  0     0  0
M  END
>  <prID>
374

>  <IDDB>
96006

>  <pIC50_HIV_Integrase>
6.431798276

>  <Q>
-7.361805923

>  <Activity_Integrase>
Active_Integrase

NA
NA
NA
NA
$$$$

  Accelrys05311914342D 1   1.00000     0.00000     0

 28 31  0     0  0            999 V2000
    2.8917    1.0875    0.0000 C   0  0  0  0  0  0           0  0  0
    1.4625    1.0833    0.0000 C   0  0  0  0  0  0           0  0  0
    2.1792    1.4958    0.0000 C   0  0  0  0  0  0           0  0  0
    1.4625    0.2500    0.0000 C   0  0  0  0  0  0           0  0  0
    2.8958    0.2542    0.0000 C   0  0  0  0  0  0           0  0  0
    2.1792   -0.1708    0.0000 N   0  0  3  0  0  0           0  0  0
    0.7458   -0.1750    0.0000 C   0  0  0  0  0  0           0  0  0
    0.0208    0.2458    0.0000 C   0  0  0  0  0  0           0  0  0
    0.7458    1.4958    0.0000 C   0  0  0  0  0  0           0  0  0
   -0.7000   -0.1750    0.0000 N   0  0  3  0  0  0           0  0  0
    3.6042    1.5000    0.0000 C   0  0  0  0  0  0           0  0  0
   -2.1333   -0.9917    0.0000 N   0  0  3  0  0  0           0  0  0
    0.0208    1.0833    0.0000 C   0  0  0  0  0  0           0  0  0
   -2.8542   -1.4000    0.0000 C   0  0  0  0  0  0           0  0  0
   -3.5667   -0.9917    0.0000 N   0  0  0  0  0  0           0  0  0
    2.1792    2.3250    0.0000 O   0  0  0  0  0  0           0  0  0
   -0.7000   -0.9958    0.0000 C   0  0  0  0  0  0           0  0  0
   -1.4125    0.2500    0.0000 C   0  0  0  0  0  0           0  0  0
   -1.4167   -1.4167    0.0000 C   0  0  0  0  0  0           0  0  0
   -2.1292   -0.1667    0.0000 C   0  0  0  0  0  0           0  0  0
    3.6042    2.3375    0.0000 O   0  0  0  0  0  0           0  0  0
   -0.6833    1.4875    0.0000 N   0  0  0  0  0  0           0  0  0
    4.3375    1.1000    0.0000 O   0  0  0  0  0  0           0  0  0
    2.1792   -0.9958    0.0000 C   0  0  0  0  0  0           0  0  0
   -2.8500   -2.2208    0.0000 C   0  0  0  0  0  0           0  0  0
   -4.2833   -1.4000    0.0000 C   0  0  0  0  0  0           0  0  0
   -3.5625   -2.6292    0.0000 C   0  0  0  0  0  0           0  0  0
   -4.2833   -2.2208    0.0000 C   0  0  0  0  0  0           0  0  0
  2  3  1  0     0  0
  3  1  1  0     0  0
  4  6  1  0     0  0
  5  1  2  0     0  0
  6  5  1  0     0  0
  7  4  2  0     0  0
  8  7  1  0     0  0
  9  2  2  0     0  0
 10  8  1  0     0  0
 11  1  1  0     0  0
 12 19  1  0     0  0
 13  9  1  0     0  0
 14 12  1  0     0  0
 15 14  2  0     0  0
 16  3  2  0     0  0
 17 10  1  0     0  0
 18 10  1  0     0  0
 19 17  1  0     0  0
 20 18  1  0     0  0
 21 11  2  0     0  0
 22 13  1  0     0  0
 23 11  1  0     0  0
 24  6  1  0     0  0
 25 14  1  0     0  0
 26 15  1  0     0  0
 27 25  2  0     0  0
 28 26  2  0     0  0
  2  4  1  0     0  0
 13  8  2  0     0  0
 12 20  1  0     0  0
 28 27  1  0     0  0
M  END
>  <prID>
375

>  <IDDB>
96427

>  <pIC50_HIV_Integrase>
4.124938737

>  <Q>
-1.244769964

>  <Activity_Integrase>
Inactive_Integrase

NA
NA
NA
NA
$$$$

  Accelrys05311914342D 1   1.00000     0.00000     0

 31 32  0     0  0            999 V2000
    1.6583   -0.4375    0.0000 C   0  0  0  0  0  0           0  0  0
    2.3167    0.7125    0.0000 C   0  0  0  0  0  0           0  0  0
   -1.6625   -0.5292    0.0000 C   0  0  0  0  0  0           0  0  0
   -2.3333    0.6208    0.0000 C   0  0  0  0  0  0           0  0  0
    1.6583    0.3292    0.0000 C   0  0  0  0  0  0           0  0  0
   -1.6667    0.2458    0.0000 C   0  0  0  0  0  0           0  0  0
    2.9917    0.3333    0.0000 C   0  0  0  0  0  0           0  0  0
    2.3208   -0.8208    0.0000 C   0  0  0  0  0  0           0  0  0
   -2.3333   -0.9125    0.0000 C   0  0  0  0  0  0           0  0  0
   -3.0000    0.2417    0.0000 C   0  0  0  0  0  0           0  0  0
    2.3167    1.4833    0.0000 N   0  3  0  0  0  0           0  0  0
   -0.9958   -0.9083    0.0000 N   0  3  0  0  0  0           0  0  0
    0.9917   -0.8208    0.0000 N   0  3  0  0  0  0           0  0  0
   -2.3375    1.3875    0.0000 N   0  3  0  0  0  0           0  0  0
    2.9917   -0.4375    0.0000 C   0  0  0  0  0  0           0  0  0
   -3.0000   -0.5333    0.0000 C   0  0  0  0  0  0           0  0  0
    0.0875    0.7333    0.0000 N   0  0  0  0  0  0           0  0  0
    1.6542    1.8667    0.0000 O   0  5  0  0  0  0           0  0  0
    0.3250   -0.4375    0.0000 O   0  5  0  0  0  0           0  0  0
    0.9875   -1.5958    0.0000 O   0  0  0  0  0  0           0  0  0
    2.9875    1.8708    0.0000 O   0  0  0  0  0  0           0  0  0
   -0.9958   -1.6833    0.0000 O   0  5  0  0  0  0           0  0  0
   -0.3333   -0.5292    0.0000 O   0  0  0  0  0  0           0  0  0
   -1.6667    1.7792    0.0000 O   0  5  0  0  0  0           0  0  0
   -3.0000    1.7750    0.0000 O   0  0  0  0  0  0           0  0  0
    2.3208   -1.5958    0.0000 Cl  0  0  0  0  0  0           0  0  0
   -3.6625    0.6208    0.0000 Cl  0  0  0  0  0  0           0  0  0
   -2.3333   -1.6833    0.0000 Cl  0  0  0  0  0  0           0  0  0
    3.6500    0.7208    0.0000 Cl  0  0  0  0  0  0           0  0  0
    3.6583   -0.8208    0.0000 O   0  0  0  0  0  0           0  0  0
   -3.6625   -0.9083    0.0000 O   0  0  0  0  0  0           0  0  0
  2  5  1  0     0  0
  3  6  1  0     0  0
  4  6  2  0     0  0
  5  1  2  0     0  0
  6 17  1  0     0  0
  7 15  1  0     0  0
  8  1  1  0     0  0
  9  3  2  0     0  0
 10  4  1  0     0  0
 11  2  1  0     0  0
 12  3  1  0     0  0
 13  1  1  0     0  0
 14  4  1  0     0  0
 15  8  2  0     0  0
 16 10  2  0     0  0
 17  5  1  0     0  0
 18 11  1  0     0  0
 19 13  1  0     0  0
 20 13  2  0     0  0
 21 11  2  0     0  0
 22 12  1  0     0  0
 23 12  2  0     0  0
 24 14  1  0     0  0
 25 14  2  0     0  0
 26  8  1  0     0  0
 27 10  1  0     0  0
 28  9  1  0     0  0
 29  7  1  0     0  0
 30 15  1  0     0  0
 31 16  1  0     0  0
  7  2  2  0     0  0
 16  9  1  0     0  0
M  CHG  8  11   1  12   1  13   1  14   1  18  -1  19  -1  22  -1  24  -1
M  END
>  <prID>
376

>  <IDDB>
96885

>  <pIC50_HIV_Integrase>
6.301029996

>  <Q>
-5.236148047

>  <Activity_Integrase>
Active_Integrase

NA
NA
NA
NA
$$$$

  Accelrys05311914342D 1   1.00000     0.00000     0

 25 26  0     0  0            999 V2000
   -0.6125    0.2792    0.0000 C   0  0  0  0  0  0           0  0  0
   -0.6083   -0.5542    0.0000 C   0  0  0  0  0  0           0  0  0
   -1.3292    0.6833    0.0000 C   0  0  0  0  0  0           0  0  0
    0.4250    0.6833    0.0000 C   0  0  0  0  0  0           0  0  0
    0.1042   -0.9625    0.0000 N   0  3  0  0  0  0           0  0  0
   -1.3292    1.5125    0.0000 N   0  3  0  0  0  0           0  0  0
   -2.7583   -0.9667    0.0000 N   0  3  0  0  0  0           0  0  0
    1.4833    0.3042    0.0000 C   0  0  0  0  0  0           0  0  0
   -2.0417   -0.5542    0.0000 C   0  0  0  0  0  0           0  0  0
   -1.3250   -0.9667    0.0000 C   0  0  0  0  0  0           0  0  0
   -2.0417    0.2750    0.0000 C   0  0  0  0  0  0           0  0  0
    2.1958    0.7208    0.0000 C   0  0  0  0  0  0           0  0  0
    1.4833   -0.5208    0.0000 C   0  0  0  0  0  0           0  0  0
    2.9125    0.3083    0.0000 C   0  0  0  0  0  0           0  0  0
    0.1042   -1.7917    0.0000 O   0  5  0  0  0  0           0  0  0
    0.8167   -0.5500    0.0000 O   0  0  0  0  0  0           0  0  0
   -0.6208    1.9250    0.0000 O   0  5  0  0  0  0           0  0  0
   -2.0458    1.9208    0.0000 O   0  0  0  0  0  0           0  0  0
   -3.4708   -0.5542    0.0000 O   0  5  0  0  0  0           0  0  0
   -2.7583   -1.7917    0.0000 O   0  0  0  0  0  0           0  0  0
    0.4250    1.4917    0.0000 O   0  0  0  0  0  0           0  0  0
    2.9167   -0.5167    0.0000 C   0  0  0  0  0  0           0  0  0
    2.1958    1.5417    0.0000 O   0  0  0  0  0  0           0  0  0
    2.1958   -0.9333    0.0000 C   0  0  0  0  0  0           0  0  0
    3.6292   -0.9333    0.0000 O   0  0  0  0  0  0           0  0  0
  2  1  1  0     0  0
  3  1  2  0     0  0
  4  1  1  0     0  0
  5  2  1  0     0  0
  6  3  1  0     0  0
  7  9  1  0     0  0
  8  4  1  0     0  0
  9 11  2  0     0  0
 10  2  2  0     0  0
 11  3  1  0     0  0
 12  8  1  0     0  0
 13  8  2  0     0  0
 14 12  2  0     0  0
 15  5  1  0     0  0
 16  5  2  0     0  0
 17  6  1  0     0  0
 18  6  2  0     0  0
 19  7  1  0     0  0
 20  7  2  0     0  0
 21  4  2  0     0  0
 22 24  2  0     0  0
 23 12  1  0     0  0
 24 13  1  0     0  0
 25 22  1  0     0  0
  9 10  1  0     0  0
 22 14  1  0     0  0
M  CHG  6   5   1   6   1   7   1  15  -1  17  -1  19  -1
M  END
>  <prID>
377

>  <IDDB>
96886

>  <pIC50_HIV_Integrase>
5.397940009

>  <Q>
-0.815896145

>  <Activity_Integrase>
Inactive_Integrase

NA
NA
NA
NA
$$$$

  Accelrys05311914342D 1   1.00000     0.00000     0

 36 39  0     0  0            999 V2000
    1.5292   -1.5375    0.0000 C   0  0  0  0  0  0           0  0  0
   -1.3292    0.1000    0.0000 C   0  0  0  0  0  0           0  0  0
   -2.0417   -1.1417    0.0000 C   0  0  0  0  0  0           0  0  0
    1.5333   -2.3625    0.0000 N   0  3  0  0  0  0           0  0  0
   -2.7583   -1.5542    0.0000 N   0  3  0  0  0  0           0  0  0
   -0.6125   -0.3125    0.0000 C   0  0  0  0  0  0           0  0  0
   -2.0417   -0.3167    0.0000 C   0  0  0  0  0  0           0  0  0
    2.2375   -0.2958    0.0000 C   0  0  0  0  0  0           0  0  0
    0.8167   -0.3042    0.0000 C   0  0  0  0  0  0           0  0  0
    2.2417   -1.1208    0.0000 C   0  0  0  0  0  0           0  0  0
    0.1000    0.1042    0.0000 C   0  0  0  0  0  0           0  0  0
    0.8167   -1.1292    0.0000 C   0  0  0  0  0  0           0  0  0
    1.5208    0.1125    0.0000 C   0  0  0  0  0  0           0  0  0
   -1.3250   -1.5583    0.0000 C   0  0  0  0  0  0           0  0  0
   -0.6083   -1.1417    0.0000 C   0  0  0  0  0  0           0  0  0
   -1.3292    0.9208    0.0000 C   0  0  0  0  0  0           0  0  0
    2.9500    0.1208    0.0000 C   0  0  0  0  0  0           0  0  0
   -2.0458    1.3333    0.0000 N   0  0  3  0  0  0           0  0  0
    2.9417    0.9500    0.0000 N   0  0  3  0  0  0           0  0  0
    0.8167   -2.7792    0.0000 O   0  5  0  0  0  0           0  0  0
    2.2500   -2.7750    0.0000 O   0  0  0  0  0  0           0  0  0
   -3.4708   -1.1417    0.0000 O   0  5  0  0  0  0           0  0  0
   -2.7583   -2.3792    0.0000 O   0  0  0  0  0  0           0  0  0
    0.1000    0.9292    0.0000 O   0  0  0  0  0  0           0  0  0
   -3.4750    2.1583    0.0000 O   0  0  0  0  0  0           0  0  0
    2.9375    2.5917    0.0000 O   0  0  0  0  0  0           0  0  0
   -2.7542    0.1000    0.0000 O   0  0  0  0  0  0           0  0  0
    2.9583   -1.5333    0.0000 O   0  0  0  0  0  0           0  0  0
   -2.7583    0.9167    0.0000 C   0  0  0  0  0  0           0  0  0
    3.6583    1.3625    0.0000 C   0  0  0  0  0  0           0  0  0
    2.2250    1.3458    0.0000 C   0  0  0  0  0  0           0  0  0
   -2.0458    2.1583    0.0000 C   0  0  0  0  0  0           0  0  0
   -3.4750    1.3292    0.0000 C   0  0  0  0  0  0           0  0  0
    3.6542    2.1833    0.0000 C   0  0  0  0  0  0           0  0  0
    2.2250    2.1750    0.0000 C   0  0  0  0  0  0           0  0  0
   -2.7583    2.5667    0.0000 C   0  0  0  0  0  0           0  0  0
  2  6  2  0     0  0
  3 14  1  0     0  0
  4  1  1  0     0  0
  5  3  1  0     0  0
  6 11  1  0     0  0
  7  2  1  0     0  0
  8 10  1  0     0  0
  9 12  2  0     0  0
 10  1  2  0     0  0
 11  9  1  0     0  0
 12  1  1  0     0  0
 13  8  2  0     0  0
 14 15  2  0     0  0
 15  6  1  0     0  0
 16  2  1  0     0  0
 17  8  1  0     0  0
 18 16  1  0     0  0
 19 17  1  0     0  0
 20  4  1  0     0  0
 21  4  2  0     0  0
 22  5  1  0     0  0
 23  5  2  0     0  0
 24 11  2  0     0  0
 25 33  1  0     0  0
 26 35  1  0     0  0
 27  7  1  0     0  0
 28 10  1  0     0  0
 29 18  1  0     0  0
 30 19  1  0     0  0
 31 19  1  0     0  0
 32 18  1  0     0  0
 33 29  1  0     0  0
 34 30  1  0     0  0
 35 31  1  0     0  0
 36 32  1  0     0  0
 13  9  1  0     0  0
 26 34  1  0     0  0
  3  7  2  0     0  0
 25 36  1  0     0  0
M  CHG  4   4   1   5   1  20  -1  22  -1
M  END
>  <prID>
378

>  <IDDB>
96887

>  <pIC50_HIV_Integrase>
4.2644011

>  <Q>
-2.514843392

>  <Activity_Integrase>
Inactive_Integrase

NA
NA
NA
NA
$$$$

  Accelrys05311914342D 1   1.00000     0.00000     0

 33 34  0     0  0            999 V2000
    2.7708    0.1833    0.0000 C   0  0  0  0  0  0           0  0  0
   -3.3667    0.5500    0.0000 C   0  0  0  0  0  0           0  0  0
    2.0833    0.5708    0.0000 C   0  0  0  0  0  0           0  0  0
    3.4500    0.5792    0.0000 C   0  0  0  0  0  0           0  0  0
   -2.6833    0.1625    0.0000 C   0  0  0  0  0  0           0  0  0
    2.7708   -0.6083    0.0000 C   0  0  0  0  0  0           0  0  0
   -4.0500    0.1542    0.0000 C   0  0  0  0  0  0           0  0  0
    2.7583   -1.5417    0.0000 N   0  0  0  0  0  0           0  0  0
   -3.3708    1.3417    0.0000 C   0  0  0  0  0  0           0  0  0
   -3.4167    2.2417    0.0000 N   0  0  0  0  0  0           0  0  0
   -2.0042    0.5583    0.0000 C   0  0  0  0  0  0           0  0  0
   -4.0458   -0.6375    0.0000 C   0  0  0  0  0  0           0  0  0
   -4.7292   -1.0333    0.0000 C   0  0  0  0  0  0           0  0  0
    4.8167   -0.9917    0.0000 C   0  0  0  0  0  0           0  0  0
    4.1333    0.1833    0.0000 C   0  0  0  0  0  0           0  0  0
   -5.4125   -0.6375    0.0000 C   0  0  0  0  0  0           0  0  0
    5.5000   -0.5958    0.0000 C   0  0  0  0  0  0           0  0  0
    4.1333   -0.6000    0.0000 C   0  0  0  0  0  0           0  0  0
    2.0833    1.3583    0.0000 O   0  0  0  0  0  0           0  0  0
   -4.7333    0.5458    0.0000 C   0  0  0  0  0  0           0  0  0
   -2.0083    1.3417    0.0000 O   0  0  0  0  0  0           0  0  0
   -5.4125    0.1500    0.0000 C   0  0  0  0  0  0           0  0  0
    1.4042    0.1750    0.0000 N   0  0  0  0  0  0           0  0  0
    5.4917    0.1958    0.0000 C   0  0  0  0  0  0           0  0  0
   -1.3208    0.1625    0.0000 N   0  0  0  0  0  0           0  0  0
    4.8083    0.5833    0.0000 C   0  0  0  0  0  0           0  0  0
   -4.7292   -1.8167    0.0000 O   0  0  0  0  0  0           0  0  0
    4.8167   -1.7792    0.0000 O   0  0  0  0  0  0           0  0  0
   -6.0917   -1.0333    0.0000 O   0  0  0  0  0  0           0  0  0
    6.1792   -0.9875    0.0000 O   0  0  0  0  0  0           0  0  0
    0.0417    0.1708    0.0000 C   0  0  0  0  0  0           0  0  0
    0.7208    0.5667    0.0000 C   0  0  0  0  0  0           0  0  0
   -0.6417    0.5625    0.0000 C   0  0  0  0  0  0           0  0  0
  2  5  2  0     0  0
  3  1  1  0     0  0
  4  1  2  0     0  0
  5 11  1  0     0  0
  6  1  1  0     0  0
  7  2  1  0     0  0
  8  6  3  0     0  0
  9  2  1  0     0  0
 10  9  3  0     0  0
 11 25  1  0     0  0
 12  7  1  0     0  0
 13 12  2  0     0  0
 14 18  1  0     0  0
 15  4  1  0     0  0
 16 22  2  0     0  0
 17 24  1  0     0  0
 18 15  2  0     0  0
 19  3  2  0     0  0
 20  7  2  0     0  0
 21 11  2  0     0  0
 22 20  1  0     0  0
 23  3  1  0     0  0
 24 26  2  0     0  0
 25 33  1  0     0  0
 26 15  1  0     0  0
 27 13  1  0     0  0
 28 14  1  0     0  0
 29 16  1  0     0  0
 30 17  1  0     0  0
 31 32  1  0     0  0
 32 23  1  0     0  0
 33 31  1  0     0  0
 17 14  2  0     0  0
 16 13  1  0     0  0
M  END
>  <prID>
379

>  <IDDB>
97572

>  <pIC50_HIV_Integrase>
5.0624693685

>  <Q>
-2.585936857

>  <Activity_Integrase>
Inactive_Integrase

NA
NA
NA
NA
$$$$

  Accelrys05311914342D 1   1.00000     0.00000     0

 40 45  0     0  0            999 V2000
    3.3000    0.0208    0.0000 N   0  0  0  0  0  0           0  0  0
   -3.3000    0.0208    0.0000 N   0  0  0  0  0  0           0  0  0
    4.0167   -0.3875    0.0000 C   0  0  0  0  0  0           0  0  0
   -4.0208   -0.3917    0.0000 C   0  0  0  0  0  0           0  0  0
    2.5875   -0.3917    0.0000 N   0  0  0  0  0  0           0  0  0
   -2.5917   -0.3958    0.0000 N   0  0  0  0  0  0           0  0  0
    4.7208    0.0250    0.0000 C   0  0  0  0  0  0           0  0  0
   -4.7208    0.0208    0.0000 C   0  0  0  0  0  0           0  0  0
    0.4542    0.8417    0.0000 C   0  0  0  0  0  0           0  0  0
   -0.4625    0.8458    0.0000 C   0  0  0  0  0  0           0  0  0
    1.1583    1.2583    0.0000 C   0  0  0  0  0  0           0  0  0
   -1.1708    1.2583    0.0000 C   0  0  0  0  0  0           0  0  0
    1.8792    0.0208    0.0000 C   0  0  0  0  0  0           0  0  0
   -1.8833    0.0208    0.0000 C   0  0  0  0  0  0           0  0  0
   -1.8833    0.8417    0.0000 C   0  0  0  0  0  0           0  0  0
    1.8750    0.8458    0.0000 C   0  0  0  0  0  0           0  0  0
    4.0167   -1.2083    0.0000 C   0  0  0  0  0  0           0  0  0
   -4.0167   -1.2125    0.0000 C   0  0  0  0  0  0           0  0  0
   -0.4583    0.0208    0.0000 C   0  0  0  0  0  0           0  0  0
    0.4542    0.0208    0.0000 C   0  0  0  0  0  0           0  0  0
    5.4333   -0.3792    0.0000 C   0  0  0  0  0  0           0  0  0
   -5.4375   -0.3833    0.0000 C   0  0  0  0  0  0           0  0  0
   -1.1667   -0.3917    0.0000 C   0  0  0  0  0  0           0  0  0
    1.1625   -0.3917    0.0000 C   0  0  0  0  0  0           0  0  0
    4.7250   -1.6208    0.0000 C   0  0  0  0  0  0           0  0  0
   -4.7292   -1.6250    0.0000 C   0  0  0  0  0  0           0  0  0
    5.4375   -1.2083    0.0000 C   0  0  0  0  0  0           0  0  0
   -5.4417   -1.2125    0.0000 C   0  0  0  0  0  0           0  0  0
   -3.3000   -1.6250    0.0000 N   0  0  0  0  0  0           0  0  0
    3.3000   -1.6208    0.0000 N   0  0  0  0  0  0           0  0  0
   -4.7208    0.8375    0.0000 C   0  0  0  0  0  0           0  0  0
    4.7167    0.8417    0.0000 C   0  0  0  0  0  0           0  0  0
    2.5833    1.2625    0.0000 C   0  0  0  0  0  0           0  0  0
   -2.5917    1.2542    0.0000 C   0  0  0  0  0  0           0  0  0
    6.1375    0.0333    0.0000 C   0  0  0  0  0  0           0  0  0
   -6.1375    0.0250    0.0000 C   0  0  0  0  0  0           0  0  0
    5.4167    1.2583    0.0000 C   0  0  0  0  0  0           0  0  0
   -5.4208    1.2542    0.0000 C   0  0  0  0  0  0           0  0  0
    6.1333    0.8500    0.0000 C   0  0  0  0  0  0           0  0  0
   -6.1333    0.8458    0.0000 C   0  0  0  0  0  0           0  0  0
  2  6  2  0     0  0
  3  1  1  0     0  0
  4  2  1  0     0  0
  5  1  2  0     0  0
  6 14  1  0     0  0
  7  3  2  0     0  0
  8  4  2  0     0  0
  9 20  2  0     0  0
 10  9  1  0     0  0
 11 16  2  0     0  0
 12 10  2  0     0  0
 13  5  1  0     0  0
 14 23  1  0     0  0
 15 12  1  0     0  0
 16 13  1  0     0  0
 17  3  1  0     0  0
 18  4  1  0     0  0
 19 10  1  0     0  0
 20 24  1  0     0  0
 21  7  1  0     0  0
 22  8  1  0     0  0
 23 19  2  0     0  0
 24 13  2  0     0  0
 25 17  2  0     0  0
 26 18  2  0     0  0
 27 25  1  0     0  0
 28 26  1  0     0  0
 29 18  1  0     0  0
 30 17  1  0     0  0
 31  8  1  0     0  0
 32  7  1  0     0  0
 33 16  1  0     0  0
 34 15  1  0     0  0
 35 21  1  0     0  0
 36 22  1  0     0  0
 37 32  2  0     0  0
 38 31  2  0     0  0
 39 37  1  0     0  0
 40 38  1  0     0  0
  9 11  1  0     0  0
 27 21  2  0     0  0
 39 35  2  0     0  0
 14 15  2  0     0  0
 28 22  2  0     0  0
 40 36  2  0     0  0
M  END
>  <prID>
380

>  <IDDB>
97573

>  <pIC50_HIV_Integrase>
5.2218487495

>  <Q>
-1.027782968

>  <Activity_Integrase>
Inactive_Integrase

NA
NA
NA
NA
$$$$

  Accelrys05311914342D 1   1.00000     0.00000     0

 16 17  0     0  0            999 V2000
    0.3583   -0.2000    0.0000 C   0  0  0  0  0  0           0  0  0
   -0.3583    0.2083    0.0000 C   0  0  0  0  0  0           0  0  0
    1.0708    0.2125    0.0000 C   0  0  0  0  0  0           0  0  0
   -1.0708   -0.2042    0.0000 C   0  0  0  0  0  0           0  0  0
    2.4958    1.0417    0.0000 C   0  0  0  0  0  0           0  0  0
   -2.5000   -1.0375    0.0000 C   0  0  0  0  0  0           0  0  0
    3.2083    1.4583    0.0000 N   0  0  0  0  0  0           0  0  0
   -1.0667   -1.0375    0.0000 C   0  0  0  0  0  0           0  0  0
   -1.7875    0.2000    0.0000 C   0  0  0  0  0  0           0  0  0
    1.0625    1.0333    0.0000 C   0  0  0  0  0  0           0  0  0
    1.7833   -0.2000    0.0000 C   0  0  0  0  0  0           0  0  0
    2.5000    0.2167    0.0000 C   0  0  0  0  0  0           0  0  0
    1.7750    1.4500    0.0000 C   0  0  0  0  0  0           0  0  0
   -2.5000   -0.2125    0.0000 C   0  0  0  0  0  0           0  0  0
   -1.7833   -1.4500    0.0000 C   0  0  0  0  0  0           0  0  0
   -3.2167   -1.4500    0.0000 O   0  0  0  0  0  0           0  0  0
  2  1  2  0     0  0
  3  1  1  0     0  0
  4  2  1  0     0  0
  5 13  1  0     0  0
  6 14  2  0     0  0
  7  5  1  0     0  0
  8  4  1  0     0  0
  9  4  2  0     0  0
 10  3  1  0     0  0
 11  3  2  0     0  0
 12 11  1  0     0  0
 13 10  2  0     0  0
 14  9  1  0     0  0
 15  8  2  0     0  0
 16  6  1  0     0  0
  5 12  2  0     0  0
  6 15  1  0     0  0
M  END
>  <prID>
381

>  <IDDB>
97574

>  <pIC50_HIV_Integrase>
5.0484550065

>  <Q>
-0.434973647

>  <Activity_Integrase>
Inactive_Integrase

NA
NA
NA
NA
$$$$

  Accelrys05311914342D 1   1.00000     0.00000     0

 30 32  0     0  0            999 V2000
    9.1458   -2.7458    0.0000 N   0  0  3  0  0  0           0  0  0
    4.1666   -4.0542    0.0000 P   0  0  3  0  0  0           0  0  0
    8.4958   -2.5292    0.0000 C   0  0  0  0  0  0           0  0  0
    9.1375   -4.8417    0.0000 C   0  0  2  0  0  0           0  0  0
    8.5083   -1.7375    0.0000 C   0  0  0  0  0  0           0  0  0
    9.1458   -1.5125    0.0000 N   0  0  0  0  0  0           0  0  0
    3.4417   -4.0542    0.0000 N   0  0  0  0  0  0           0  0  0
    9.6000   -2.1250    0.0000 C   0  0  0  0  0  0           0  0  0
    4.7000   -4.0625    0.0000 O   0  0  0  0  0  0           0  0  0
    5.4584   -4.0584    0.0000 P   0  0  3  0  0  0           0  0  0
    2.6458   -4.0542    0.0000 P   0  0  3  0  0  0           0  0  0
    8.1291   -4.3916    0.0000 O   0  0  0  0  0  0           0  0  0
    8.7750   -5.6167    0.0000 C   0  0  0  0  0  0           0  0  0
    7.8750   -1.3750    0.0000 C   0  0  0  0  0  0           0  0  0
    7.1334   -4.8709    0.0000 C   0  0  1  0  0  0           0  0  0
    7.8500   -2.9125    0.0000 N   0  0  0  0  0  0           0  0  0
    7.1750   -1.7542    0.0000 N   0  0  0  0  0  0           0  0  0
    7.5333   -5.6417    0.0000 C   0  0  1  0  0  0           0  0  0
    4.1375   -3.3542    0.0000 O   0  0  0  0  0  0           0  0  0
    7.1334   -4.0625    0.0000 C   0  0  0  0  0  0           0  0  0
    7.1750   -2.5375    0.0000 C   0  0  0  0  0  0           0  0  0
    6.3000   -4.0667    0.0000 O   0  0  0  0  0  0           0  0  0
    2.6500   -3.2875    0.0000 O   0  0  0  0  0  0           0  0  0
    5.4542   -3.3167    0.0000 O   0  0  0  0  0  0           0  0  0
    4.1708   -4.6833    0.0000 O   0  0  0  0  0  0           0  0  0
    1.9208   -4.0542    0.0000 O   0  0  0  0  0  0           0  0  0
    2.6458   -4.6250    0.0000 O   0  0  0  0  0  0           0  0  0
    5.4584   -4.7958    0.0000 O   0  0  0  0  0  0           0  0  0
    7.8792   -0.6708    0.0000 N   0  0  0  0  0  0           0  0  0
    7.5083   -6.4042    0.0000 O   0  0  0  0  0  0           0  0  0
  2  9  1  0     0  0
  3  1  1  0     0  0
  4  1  1  1     0  0
  5  3  2  0     0  0
  6  8  2  0     0  0
  7  2  1  0     0  0
  8  1  1  0     0  0
  9 10  1  0     0  0
 10 22  1  0     0  0
 11  7  1  0     0  0
 12  4  1  0     0  0
 13  4  1  0     0  0
 14  5  1  0     0  0
 15 12  1  0     0  0
 16  3  1  0     0  0
 17 21  1  0     0  0
 18 13  1  0     0  0
 19  2  2  0     0  0
 15 20  1  1     0  0
 21 16  2  0     0  0
 22 20  1  0     0  0
 23 11  2  0     0  0
 24 10  2  0     0  0
 25  2  1  0     0  0
 26 11  1  0     0  0
 27 11  1  0     0  0
 28 10  1  0     0  0
 29 14  1  0     0  0
 18 30  1  6     0  0
  6  5  1  0     0  0
 18 15  1  0     0  0
 17 14  2  0     0  0
M  END
>  <prID>
382

>  <IDDB>
97575

>  <pIC50_HIV_Integrase>
4

>  <Q>
-11.58023001

>  <Activity_Integrase>
Inactive_Integrase

NA
NA
NA
NA
$$$$

  Accelrys05311914342D 1   1.00000     0.00000     0

 44 49  0     0  0            999 V2000
   -0.2966   -1.0690    0.0000 H   0  0  0  0  0  0           0  0  0
   -1.9828    0.0310    0.0000 P   0  0  3  0  0  0           0  0  0
   -1.2207    0.0276    0.0000 O   0  0  0  0  0  0           0  0  0
   -1.9862    0.7966    0.0000 O   0  0  0  0  0  0           0  0  0
   -1.9862   -0.7310    0.0000 O   0  0  0  0  0  0           0  0  0
   -0.4621    0.0207    0.0000 C   0  0  0  0  0  0           0  0  0
   -0.4862   -0.7345    0.0000 C   0  0  3  0  0  0           0  0  0
    0.1207   -0.2897    0.0000 O   0  0  0  0  0  0           0  0  0
   -0.2552   -1.4448    0.0000 C   0  0  3  0  0  0           0  0  0
    0.7276   -0.7345    0.0000 C   0  0  3  0  0  0           0  0  0
    0.4966   -1.4448    0.0000 C   0  0  0  0  0  0           0  0  0
   -0.2586   -2.1931    0.0000 O   0  0  0  0  0  0           0  0  0
    0.7207    0.0172    0.0000 N   0  0  3  0  0  0           0  0  0
    1.4414    0.2138    0.0000 C   0  0  0  0  0  0           0  0  0
    0.3138    0.6379    0.0000 C   0  0  0  0  0  0           0  0  0
    1.4793    0.9552    0.0000 C   0  0  0  0  0  0           0  0  0
    2.0655   -0.1897    0.0000 N   0  0  0  0  0  0           0  0  0
    0.7793    1.2241    0.0000 N   0  0  0  0  0  0           0  0  0
    2.1414    1.2931    0.0000 C   0  0  0  0  0  0           0  0  0
    2.7276    0.1483    0.0000 C   0  0  0  0  0  0           0  0  0
    2.7655    0.8897    0.0000 N   0  0  0  0  0  0           0  0  0
    2.1793    2.0379    0.0000 N   0  0  0  0  0  0           0  0  0
   -0.0379    0.0172    0.0000 N   0  0  3  0  0  0           0  0  0
   -0.0310   -0.7345    0.0000 C   0  0  3  0  0  0           0  0  0
    0.6828    0.2138    0.0000 C   0  0  0  0  0  0           0  0  0
   -0.4448    0.6379    0.0000 C   0  0  0  0  0  0           0  0  0
   -0.6379   -0.2897    0.0000 O   0  0  0  0  0  0           0  0  0
   -0.2621   -1.4448    0.0000 C   0  0  0  0  0  0           0  0  0
    0.7207    0.9552    0.0000 C   0  0  0  0  0  0           0  0  0
    1.3069   -0.1897    0.0000 N   0  0  0  0  0  0           0  0  0
    0.0207    1.2241    0.0000 N   0  0  0  0  0  0           0  0  0
   -1.2448   -0.7345    0.0000 C   0  0  3  0  0  0           0  0  0
   -1.0138   -1.4448    0.0000 C   0  0  3  0  0  0           0  0  0
    1.3828    1.2931    0.0000 C   0  0  0  0  0  0           0  0  0
    1.9690    0.1483    0.0000 C   0  0  0  0  0  0           0  0  0
   -1.2207    0.0207    0.0000 C   0  0  0  0  0  0           0  0  0
   -1.0172   -2.1931    0.0000 O   0  0  0  0  0  0           0  0  0
    2.0069    0.8897    0.0000 N   0  0  0  0  0  0           0  0  0
    1.4207    2.0379    0.0000 N   0  0  0  0  0  0           0  0  0
   -1.9793    0.0276    0.0000 O   0  0  0  0  0  0           0  0  0
   -2.7414    0.0310    0.0000 P   0  0  3  0  0  0           0  0  0
   -2.7448    0.7966    0.0000 O   0  0  0  0  0  0           0  0  0
   -2.7448   -0.7310    0.0000 O   0  0  0  0  0  0           0  0  0
   -2.7034   -1.0724    0.0000 O   0  0  0  0  0  0           0  0  0
 13 14  1  0     0  0
 13 15  1  0     0  0
 14 16  2  0     0  0
 14 17  1  0     0  0
 15 18  2  0     0  0
 16 19  1  0     0  0
  1 12  1  0     0  0
 37  2  1  0     0  0
 41 44  1  0     0  0
 17 20  2  0     0  0
 19 21  2  0     0  0
 19 22  1  0     0  0
 10 11  1  0     0  0
 16 18  1  0     0  0
 20 21  1  0     0  0
  2  3  1  0     0  0
  2  4  1  0     0  0
  2  5  2  0     0  0
  3  6  1  0     0  0
  6  7  1  0     0  0
  7  8  1  0     0  0
  7  9  1  0     0  0
  8 10  1  0     0  0
  9 11  1  0     0  0
  9 12  1  0     0  0
 23 24  1  0     0  0
 23 25  1  0     0  0
 23 26  1  0     0  0
 24 27  1  0     0  0
 24 28  1  0     0  0
 25 29  2  0     0  0
 25 30  1  0     0  0
 26 31  2  0     0  0
 27 32  1  0     0  0
 28 33  1  0     0  0
 29 34  1  0     0  0
 30 35  2  0     0  0
 32 36  1  0     0  0
 33 37  1  0     0  0
 34 38  2  0     0  0
 34 39  1  0     0  0
 36 40  1  0     0  0
 40 41  1  0     0  0
 41 42  1  0     0  0
 41 43  2  0     0  0
 29 31  1  0     0  0
 32 33  1  0     0  0
 35 38  1  0     0  0
 10 13  1  0     0  0
M  STY  4   1 SUP   2 SUP   3 SUP   4 SUP
M  SLB  4   1   1   2   2   3   3   4   4
M  SAL   1  1   1
M  SBL   1  1   7
M  SMT   1 \n3'
M  SBV   1   7    0.0300   -1.1300
M  SCL   1 LGRP
M  SAL   2 15   2   3   4   5   6   7   8   9  10  11  12  13  14  15  16
M  SAL   2  6  17  18  19  20  21  22
M  SBL   2  2   7   8
M  SMT   2 A
M  SBV   2   8    0.9600   -2.2300
M  SBV   2   7   -0.0300    1.1300
M  SCL   2 DNA
M  SAP   2  2   2  37 Al  12   1 Br
M  SAL   3 15  23  24  25  26  27  28  29  30  31  32  33  34  35  36  37
M  SAL   3  6  38  39  40  41  42  43
M  SBL   3  2   8   9
M  SMT   3 A
M  SBV   3   8   -0.9600    2.2300
M  SBV   3   9    0.0400   -1.1100
M  SCL   3 DNA
M  SAP   3  2  37   2 Br  41  44 Al
M  SAL   4  1  44
M  SBL   4  1   9
M  SMT   4 \n5'
M  SBV   4   9   -0.0400    1.1100
M  SCL   4 LGRP
M  END
>  <prID>
383

>  <IDDB>
97587

>  <pIC50_HIV_Integrase>
4

>  <Q>
-11.75996413

>  <Activity_Integrase>
Inactive_Integrase

NA
NA
NA
NA
$$$$

  Accelrys05311914342D 1   1.00000     0.00000     0

 45 50  0     0  0            999 V2000
    1.3655    0.2207    0.0000 C   0  0  0  0  0  0           0  0  0
    0.6448    0.0241    0.0000 N   0  0  3  0  0  0           0  0  0
    1.4034    0.9621    0.0000 C   0  0  0  0  0  0           0  0  0
    1.9897   -0.1828    0.0000 N   0  0  0  0  0  0           0  0  0
    0.6517   -0.7310    0.0000 C   0  0  3  0  0  0           0  0  0
    0.2379    0.6448    0.0000 C   0  0  0  0  0  0           0  0  0
    0.7034    1.2310    0.0000 N   0  0  0  0  0  0           0  0  0
    2.0655    1.3000    0.0000 C   0  0  0  0  0  0           0  0  0
    2.6517    0.1552    0.0000 C   0  0  0  0  0  0           0  0  0
    0.0448   -0.2828    0.0000 O   0  0  0  0  0  0           0  0  0
    0.4207   -1.4379    0.0000 C   0  0  0  0  0  0           0  0  0
    2.6897    0.8966    0.0000 N   0  0  0  0  0  0           0  0  0
    2.1034    2.0414    0.0000 O   0  0  0  0  0  0           0  0  0
    3.2759   -0.2483    0.0000 N   0  0  0  0  0  0           0  0  0
   -0.5621   -0.7310    0.0000 C   0  0  3  0  0  0           0  0  0
   -0.3310   -1.4379    0.0000 C   0  0  3  0  0  0           0  0  0
   -0.5621    0.0276    0.0000 C   0  0  0  0  0  0           0  0  0
   -0.3345   -2.1897    0.0000 O   0  0  0  0  0  0           0  0  0
   -1.2966    0.0310    0.0000 O   0  0  0  0  0  0           0  0  0
   -2.0586    0.0379    0.0000 P   0  0  3  0  0  0           0  0  0
   -2.0621    0.8034    0.0000 O   0  0  0  0  0  0           0  0  0
   -2.0621   -0.7276    0.0000 O   0  0  0  0  0  0           0  0  0
   -1.0931   -2.1897    0.0000 O   0  0  0  0  0  0           0  0  0
   -1.0897   -1.4379    0.0000 C   0  0  3  0  0  0           0  0  0
   -1.3207   -0.7310    0.0000 C   0  0  3  0  0  0           0  0  0
   -0.3379   -1.4379    0.0000 C   0  0  0  0  0  0           0  0  0
   -0.7138   -0.2828    0.0000 O   0  0  0  0  0  0           0  0  0
   -1.2966    0.0276    0.0000 C   0  0  0  0  0  0           0  0  0
   -0.1069   -0.7310    0.0000 C   0  0  3  0  0  0           0  0  0
   -2.0552    0.0310    0.0000 O   0  0  0  0  0  0           0  0  0
   -0.1138    0.0241    0.0000 N   0  0  3  0  0  0           0  0  0
   -2.8172    0.0379    0.0000 P   0  0  3  0  0  0           0  0  0
    0.6069    0.2207    0.0000 C   0  0  0  0  0  0           0  0  0
   -0.5207    0.6448    0.0000 C   0  0  0  0  0  0           0  0  0
   -2.8207    0.8034    0.0000 O   0  0  0  0  0  0           0  0  0
   -2.8207   -0.7276    0.0000 O   0  0  0  0  0  0           0  0  0
    0.6448    0.9621    0.0000 C   0  0  0  0  0  0           0  0  0
    1.2310   -0.1828    0.0000 N   0  0  0  0  0  0           0  0  0
   -0.0552    1.2310    0.0000 N   0  0  0  0  0  0           0  0  0
    1.3069    1.3000    0.0000 C   0  0  0  0  0  0           0  0  0
    1.8931    0.1552    0.0000 C   0  0  0  0  0  0           0  0  0
    1.9310    0.8966    0.0000 N   0  0  0  0  0  0           0  0  0
    1.3448    2.0414    0.0000 N   0  0  0  0  0  0           0  0  0
   -0.3724   -1.0621    0.0000 H   0  0  0  0  0  0           0  0  0
   -2.7793   -1.0690    0.0000 O   0  0  0  0  0  0           0  0  0
  9 14  1  0     0  0
 10 15  1  0     0  0
 11 16  1  0     0  0
 15 17  1  0     0  0
 16 18  1  0     0  0
 20 23  1  0     0  0
 32 45  1  0     0  0
 44 18  1  0     0  0
 17 19  1  0     0  0
 19 20  1  0     0  0
 20 21  1  0     0  0
 20 22  2  0     0  0
  6  7  2  0     0  0
  9 12  1  0     0  0
 15 16  1  0     0  0
  1  2  1  0     0  0
  1  3  2  0     0  0
  1  4  1  0     0  0
  2  5  1  0     0  0
  2  6  1  0     0  0
  3  7  1  0     0  0
  3  8  1  0     0  0
  4  9  2  0     0  0
  5 10  1  0     0  0
  5 11  1  0     0  0
 23 24  1  0     0  0
 24 25  1  0     0  0
 24 26  1  0     0  0
 25 27  1  0     0  0
 25 28  1  0     0  0
 26 29  1  0     0  0
 28 30  1  0     0  0
 29 31  1  0     0  0
 30 32  1  0     0  0
 31 33  1  0     0  0
 31 34  1  0     0  0
 32 35  1  0     0  0
 32 36  2  0     0  0
 33 37  2  0     0  0
 33 38  1  0     0  0
 34 39  2  0     0  0
 37 40  1  0     0  0
 38 41  2  0     0  0
 40 42  2  0     0  0
 40 43  1  0     0  0
 27 29  1  0     0  0
 37 39  1  0     0  0
 41 42  1  0     0  0
  8 12  1  0     0  0
  8 13  2  0     0  0
M  STY  4   1 SUP   2 SUP   3 SUP   4 SUP
M  SLB  4   1   1   2   2   3   3   4   4
M  SAL   1 15  23  24  25  26  27  28  29  30  31  32  33  34  35  36  37
M  SAL   1  6  38  39  40  41  42  43
M  SBL   1  2   6   7
M  SMT   1 A
M  SBV   1   6   -0.9700    2.2300
M  SBV   1   7    0.0400   -1.1100
M  SCL   1 DNA
M  SAP   1  2  23  20 Br  32  45 Al
M  SAL   2  1  44
M  SBL   2  1   8
M  SMT   2 \n3'
M  SBV   2   8    0.0400   -1.1300
M  SCL   2 LGRP
M  SAL   3 15   1   2   3   4   5   6   7   8   9  10  11  12  13  14  15
M  SAL   3  7  16  17  18  19  20  21  22
M  SBL   3  2   6   8
M  SMT   3 G
M  SBV   3   8   -0.0400    1.1300
M  SBV   3   6    0.9700   -2.2300
M  SCL   3 DNA
M  SAP   3  2  18  44 Br  20  23 Al
M  SAL   4  1  45
M  SBL   4  1   7
M  SMT   4 \n5'
M  SBV   4   7   -0.0400    1.1100
M  SCL   4 LGRP
M  END
>  <prID>
384

>  <IDDB>
97589

>  <pIC50_HIV_Integrase>
5.045757491

>  <Q>
-12.85724678

>  <Activity_Integrase>
Inactive_Integrase

NA
NA
NA
NA
$$$$

  Accelrys05311914342D 1   1.00000     0.00000     0

 43 47  0     0  0            999 V2000
   -2.4621   -1.1000    0.0000 O   0  0  0  0  0  0           0  0  0
   -0.0517   -1.1207    0.0000 H   0  0  0  0  0  0           0  0  0
    0.2069   -0.0103    0.0000 N   0  0  3  0  0  0           0  0  0
    0.2138   -0.7621    0.0000 C   0  0  3  0  0  0           0  0  0
    0.9276    0.1862    0.0000 C   0  0  0  0  0  0           0  0  0
   -0.2034    0.6103    0.0000 C   0  0  0  0  0  0           0  0  0
   -0.3931   -0.3172    0.0000 O   0  0  0  0  0  0           0  0  0
   -0.0172   -1.4724    0.0000 C   0  0  0  0  0  0           0  0  0
    0.9655    0.9276    0.0000 C   0  0  0  0  0  0           0  0  0
    1.5517   -0.2172    0.0000 N   0  0  0  0  0  0           0  0  0
    0.2655    1.1966    0.0000 N   0  0  0  0  0  0           0  0  0
   -1.0000   -0.7621    0.0000 C   0  0  3  0  0  0           0  0  0
   -0.7690   -1.4724    0.0000 C   0  0  3  0  0  0           0  0  0
    1.6276    1.2655    0.0000 C   0  0  0  0  0  0           0  0  0
    2.2138    0.1207    0.0000 C   0  0  0  0  0  0           0  0  0
   -0.9759   -0.0069    0.0000 C   0  0  0  0  0  0           0  0  0
   -0.7724   -2.2207    0.0000 O   0  0  0  0  0  0           0  0  0
    2.2483    0.8621    0.0000 N   0  0  0  0  0  0           0  0  0
    1.6621    2.0103    0.0000 N   0  0  0  0  0  0           0  0  0
   -1.7345    0.0000    0.0000 O   0  0  0  0  0  0           0  0  0
   -2.4966    0.0034    0.0000 P   0  0  3  0  0  0           0  0  0
   -2.5034    0.7690    0.0000 O   0  0  0  0  0  0           0  0  0
   -2.5034   -0.7586    0.0000 O   0  0  0  0  0  0           0  0  0
   -1.7414    0.0034    0.0000 P   0  0  3  0  0  0           0  0  0
   -0.9759    0.0000    0.0000 O   0  0  0  0  0  0           0  0  0
   -1.7448    0.7690    0.0000 O   0  0  0  0  0  0           0  0  0
   -1.7448   -0.7586    0.0000 O   0  0  0  0  0  0           0  0  0
   -0.2448   -0.0069    0.0000 C   0  0  0  0  0  0           0  0  0
   -0.2414   -0.7621    0.0000 C   0  0  3  0  0  0           0  0  0
    0.3655   -0.3172    0.0000 O   0  0  0  0  0  0           0  0  0
   -0.0103   -1.4724    0.0000 C   0  0  3  0  0  0           0  0  0
    0.9724   -0.7621    0.0000 C   0  0  3  0  0  0           0  0  0
    0.7379   -1.4724    0.0000 C   0  0  0  0  0  0           0  0  0
   -0.0138   -2.2207    0.0000 O   0  0  0  0  0  0           0  0  0
    0.9655   -0.0103    0.0000 N   0  0  3  0  0  0           0  0  0
    1.5862    0.3690    0.0000 C   0  0  0  0  0  0           0  0  0
    0.3138    0.3586    0.0000 C   0  0  0  0  0  0           0  0  0
    1.6034    1.1172    0.0000 N   0  0  0  0  0  0           0  0  0
    2.2621    0.0000    0.0000 O   0  0  0  0  0  0           0  0  0
    0.3069    1.1103    0.0000 C   0  0  0  0  0  0           0  0  0
    0.9552    1.4897    0.0000 C   0  0  0  0  0  0           0  0  0
   -0.3448    1.4793    0.0000 C   0  0  0  0  0  0           0  0  0
    0.9483    2.2379    0.0000 O   0  0  0  0  0  0           0  0  0
  5  9  2  0     0  0
  5 10  1  0     0  0
  6 11  2  0     0  0
  7 12  1  0     0  0
  8 13  1  0     0  0
  9 14  1  0     0  0
 10 15  2  0     0  0
 12 16  1  0     0  0
 13 17  1  0     0  0
 17 24  1  0     0  0
 21  1  1  0     0  0
  2 34  1  0     0  0
 14 18  2  0     0  0
 14 19  1  0     0  0
 16 20  1  0     0  0
 20 21  1  0     0  0
 21 22  1  0     0  0
 21 23  2  0     0  0
  9 11  1  0     0  0
 12 13  1  0     0  0
 15 18  1  0     0  0
  3  4  1  0     0  0
  3  5  1  0     0  0
  3  6  1  0     0  0
  4  7  1  0     0  0
  4  8  1  0     0  0
 24 25  1  0     0  0
 24 26  1  0     0  0
 24 27  2  0     0  0
 25 28  1  0     0  0
 28 29  1  0     0  0
 29 30  1  0     0  0
 29 31  1  0     0  0
 30 32  1  0     0  0
 31 33  1  0     0  0
 31 34  1  0     0  0
 32 35  1  0     0  0
 35 36  1  0     0  0
 35 37  1  0     0  0
 36 38  1  0     0  0
 36 39  2  0     0  0
 37 40  2  0     0  0
 38 41  1  0     0  0
 40 42  1  0     0  0
 41 43  2  0     0  0
 32 33  1  0     0  0
 40 41  1  0     0  0
M  STY  4   1 SUP   2 SUP   3 SUP   4 SUP
M  SLB  4   1   1   2   2   3   3   4   4
M  SAL   1  1   2
M  SBL   1  1  12
M  SMT   1 \n3'
M  SBV   1  12    0.0400   -1.1000
M  SCL   1 LGRP
M  SAL   2  1   1
M  SBL   2  1  11
M  SMT   2 \n5'
M  SBV   2  11   -0.0300    1.1100
M  SCL   2 LGRP
M  SAL   3 15   3   4   5   6   7   8   9  10  11  12  13  14  15  16  17
M  SAL   3  6  18  19  20  21  22  23
M  SBL   3  2  10  11
M  SMT   3 A
M  SBV   3  10   -0.9700    2.2200
M  SBV   3  11    0.0300   -1.1100
M  SCL   3 DNA
M  SAP   3  2  17  24 Br  21   1 Al
M  SAL   4 15  24  25  26  27  28  29  30  31  32  33  34  35  36  37  38
M  SAL   4  5  39  40  41  42  43
M  SBL   4  2  10  12
M  SMT   4 T
M  SBV   4  10    0.9700   -2.2200
M  SBV   4  12   -0.0400    1.1000
M  SCL   4 DNA
M  SAP   4  2  24  17 Al  34   2 Br
M  END
>  <prID>
385

>  <IDDB>
97590

>  <pIC50_HIV_Integrase>
5.15490196

>  <Q>
-11.32037823

>  <Activity_Integrase>
Inactive_Integrase

NA
NA
NA
NA
$$$$

  Accelrys05311914342D 1   1.00000     0.00000     0

 42 46  0     0  0            999 V2000
   -0.8172   -2.1862    0.0000 O   0  0  0  0  0  0           0  0  0
   -0.8138   -1.4345    0.0000 C   0  0  3  0  0  0           0  0  0
   -1.0448   -0.7276    0.0000 C   0  0  3  0  0  0           0  0  0
   -0.0655   -1.4345    0.0000 C   0  0  0  0  0  0           0  0  0
   -0.4379   -0.2828    0.0000 O   0  0  0  0  0  0           0  0  0
   -1.0483    0.0310    0.0000 C   0  0  0  0  0  0           0  0  0
    0.1690   -0.7276    0.0000 C   0  0  3  0  0  0           0  0  0
   -1.7793    0.0345    0.0000 O   0  0  0  0  0  0           0  0  0
    0.1621    0.0276    0.0000 N   0  0  3  0  0  0           0  0  0
   -2.5448    0.0379    0.0000 P   0  0  3  0  0  0           0  0  0
    0.7828    0.4069    0.0000 C   0  0  0  0  0  0           0  0  0
   -0.4897    0.3966    0.0000 C   0  0  0  0  0  0           0  0  0
   -2.5483    0.8069    0.0000 O   0  0  0  0  0  0           0  0  0
   -2.5483   -0.7241    0.0000 O   0  0  0  0  0  0           0  0  0
    0.8000    1.1552    0.0000 N   0  0  0  0  0  0           0  0  0
    1.4586    0.0345    0.0000 O   0  0  0  0  0  0           0  0  0
   -0.4966    1.1448    0.0000 C   0  0  0  0  0  0           0  0  0
    0.1483    1.5241    0.0000 C   0  0  0  0  0  0           0  0  0
    0.1448    2.2759    0.0000 N   0  0  0  0  0  0           0  0  0
    0.9207    0.0276    0.0000 N   0  0  3  0  0  0           0  0  0
    1.6414    0.2207    0.0000 C   0  0  0  0  0  0           0  0  0
    0.9276   -0.7276    0.0000 C   0  0  3  0  0  0           0  0  0
    0.5103    0.6483    0.0000 C   0  0  0  0  0  0           0  0  0
    1.6759    0.9655    0.0000 C   0  0  0  0  0  0           0  0  0
    2.2621   -0.1828    0.0000 N   0  0  0  0  0  0           0  0  0
    0.3207   -0.2828    0.0000 O   0  0  0  0  0  0           0  0  0
    0.6931   -1.4345    0.0000 C   0  0  0  0  0  0           0  0  0
    0.9793    1.2345    0.0000 N   0  0  0  0  0  0           0  0  0
    2.3379    1.3034    0.0000 C   0  0  0  0  0  0           0  0  0
    2.9241    0.1586    0.0000 C   0  0  0  0  0  0           0  0  0
   -0.2862   -0.7276    0.0000 C   0  0  3  0  0  0           0  0  0
   -0.0552   -1.4345    0.0000 C   0  0  3  0  0  0           0  0  0
    2.9621    0.9000    0.0000 N   0  0  0  0  0  0           0  0  0
    2.3759    2.0448    0.0000 N   0  0  0  0  0  0           0  0  0
   -0.2655    0.0310    0.0000 C   0  0  0  0  0  0           0  0  0
   -0.0586   -2.1862    0.0000 O   0  0  0  0  0  0           0  0  0
   -1.0241    0.0345    0.0000 O   0  0  0  0  0  0           0  0  0
   -1.7862    0.0379    0.0000 P   0  0  3  0  0  0           0  0  0
   -1.7897    0.8069    0.0000 O   0  0  0  0  0  0           0  0  0
   -1.7897   -0.7241    0.0000 O   0  0  0  0  0  0           0  0  0
   -0.0966   -1.0621    0.0000 H   0  0  0  0  0  0           0  0  0
   -2.5069   -1.0655    0.0000 O   0  0  0  0  0  0           0  0  0
 15 18  2  0     0  0
 41 36  1  0     0  0
 38  1  1  0     0  0
 10 42  1  0     0  0
 18 19  1  0     0  0
  5  7  1  0     0  0
 17 18  1  0     0  0
  1  2  1  0     0  0
  2  3  1  0     0  0
  2  4  1  0     0  0
  3  5  1  0     0  0
  3  6  1  0     0  0
  4  7  1  0     0  0
  6  8  1  0     0  0
  7  9  1  0     0  0
  8 10  1  0     0  0
  9 11  1  0     0  0
  9 12  1  0     0  0
 10 13  1  0     0  0
 10 14  2  0     0  0
 11 15  1  0     0  0
 20 21  1  0     0  0
 20 22  1  0     0  0
 20 23  1  0     0  0
 21 24  2  0     0  0
 21 25  1  0     0  0
 22 26  1  0     0  0
 22 27  1  0     0  0
 23 28  2  0     0  0
 24 29  1  0     0  0
 25 30  2  0     0  0
 26 31  1  0     0  0
 27 32  1  0     0  0
 29 33  2  0     0  0
 29 34  1  0     0  0
 31 35  1  0     0  0
 32 36  1  0     0  0
 35 37  1  0     0  0
 37 38  1  0     0  0
 38 39  1  0     0  0
 38 40  2  0     0  0
 24 28  1  0     0  0
 30 33  1  0     0  0
 31 32  1  0     0  0
 11 16  2  0     0  0
 12 17  2  0     0  0
M  STY  4   1 SUP   2 SUP   3 SUP   4 SUP
M  SLB  4   1   1   2   2   3   3   4   4
M  SAL   1 15  20  21  22  23  24  25  26  27  28  29  30  31  32  33  34
M  SAL   1  6  35  36  37  38  39  40
M  SBL   1  2   2   3
M  SMT   1 A
M  SBV   1   2   -0.0300    1.1300
M  SBV   1   3    0.9600   -2.2300
M  SCL   1 DNA
M  SAP   1  2  36  41 Br  38   1 Al
M  SAL   2 15   1   2   3   4   5   6   7   8   9  10  11  12  13  14  15
M  SAL   2  4  16  17  18  19
M  SBL   2  2   3   4
M  SMT   2 C
M  SBV   2   3   -0.9600    2.2300
M  SBV   2   4    0.0400   -1.1100
M  SCL   2 DNA
M  SAP   2  2   1  38 Br  10  42 Al
M  SAL   3  1  41
M  SBL   3  1   2
M  SMT   3 \n3'
M  SBV   3   2    0.0300   -1.1300
M  SCL   3 LGRP
M  SAL   4  1  42
M  SBL   4  1   4
M  SMT   4 \n5'
M  SBV   4   4   -0.0400    1.1100
M  SCL   4 LGRP
M  END
>  <prID>
386

>  <IDDB>
97591

>  <pIC50_HIV_Integrase>
4.886056648

>  <Q>
-11.96449222

>  <Activity_Integrase>
Inactive_Integrase

NA
NA
NA
NA
$$$$

  Accelrys05311914342D 1   1.00000     0.00000     0

 40 43  0     0  0            999 V2000
   -1.5276    0.0483    0.0000 P   0  0  3  0  0  0           0  0  0
   -0.7655    0.0448    0.0000 O   0  0  0  0  0  0           0  0  0
   -1.5310    0.8138    0.0000 O   0  0  0  0  0  0           0  0  0
   -1.5310   -0.7138    0.0000 O   0  0  0  0  0  0           0  0  0
   -0.0310    0.0414    0.0000 C   0  0  0  0  0  0           0  0  0
   -0.0310   -0.7172    0.0000 C   0  0  3  0  0  0           0  0  0
    0.5759   -0.2724    0.0000 O   0  0  0  0  0  0           0  0  0
    0.2000   -1.4276    0.0000 C   0  0  3  0  0  0           0  0  0
    1.1828   -0.7172    0.0000 C   0  0  3  0  0  0           0  0  0
    0.9517   -1.4276    0.0000 C   0  0  0  0  0  0           0  0  0
    0.1966   -2.1759    0.0000 O   0  0  0  0  0  0           0  0  0
    1.1759    0.0345    0.0000 N   0  0  3  0  0  0           0  0  0
    1.7966    0.4138    0.0000 C   0  0  0  0  0  0           0  0  0
    0.5241    0.4069    0.0000 C   0  0  0  0  0  0           0  0  0
    1.8172    1.1621    0.0000 N   0  0  0  0  0  0           0  0  0
    2.4759    0.0448    0.0000 O   0  0  0  0  0  0           0  0  0
    0.5207    1.1552    0.0000 C   0  0  0  0  0  0           0  0  0
    1.1655    1.5345    0.0000 C   0  0  0  0  0  0           0  0  0
    1.1586    2.2828    0.0000 N   0  0  0  0  0  0           0  0  0
    0.1586   -1.0517    0.0000 H   0  0  0  0  0  0           0  0  0
   -2.2483   -1.0552    0.0000 O   0  0  0  0  0  0           0  0  0
    0.4241   -0.7172    0.0000 C   0  0  3  0  0  0           0  0  0
    0.4172    0.0345    0.0000 N   0  0  3  0  0  0           0  0  0
    0.1931   -1.4276    0.0000 C   0  0  0  0  0  0           0  0  0
   -0.1828   -0.2724    0.0000 O   0  0  0  0  0  0           0  0  0
    1.0379    0.4138    0.0000 C   0  0  0  0  0  0           0  0  0
   -0.2345    0.4069    0.0000 C   0  0  0  0  0  0           0  0  0
   -0.5552   -1.4276    0.0000 C   0  0  3  0  0  0           0  0  0
   -0.7897   -0.7172    0.0000 C   0  0  3  0  0  0           0  0  0
    1.0586    1.1621    0.0000 N   0  0  0  0  0  0           0  0  0
    1.7172    0.0448    0.0000 O   0  0  0  0  0  0           0  0  0
   -0.2379    1.1552    0.0000 C   0  0  0  0  0  0           0  0  0
   -0.5621   -2.1759    0.0000 O   0  0  0  0  0  0           0  0  0
   -0.7897    0.0414    0.0000 C   0  0  0  0  0  0           0  0  0
    0.4069    1.5345    0.0000 C   0  0  0  0  0  0           0  0  0
   -1.5241    0.0448    0.0000 O   0  0  0  0  0  0           0  0  0
    0.4034    2.2828    0.0000 N   0  0  0  0  0  0           0  0  0
   -2.2862    0.0483    0.0000 P   0  0  3  0  0  0           0  0  0
   -2.2897    0.8138    0.0000 O   0  0  0  0  0  0           0  0  0
   -2.2897   -0.7138    0.0000 O   0  0  0  0  0  0           0  0  0
 12 14  1  0     0  0
 13 15  1  0     0  0
 13 16  2  0     0  0
 20 11  1  0     0  0
 33  1  1  0     0  0
 38 21  1  0     0  0
 14 17  2  0     0  0
 15 18  2  0     0  0
 18 19  1  0     0  0
  9 10  1  0     0  0
 17 18  1  0     0  0
  1  2  1  0     0  0
  1  3  1  0     0  0
  1  4  2  0     0  0
  2  5  1  0     0  0
  5  6  1  0     0  0
  6  7  1  0     0  0
  6  8  1  0     0  0
  7  9  1  0     0  0
  8 10  1  0     0  0
  8 11  1  0     0  0
  9 12  1  0     0  0
 12 13  1  0     0  0
 22 23  1  0     0  0
 22 24  1  0     0  0
 22 25  1  0     0  0
 23 26  1  0     0  0
 23 27  1  0     0  0
 24 28  1  0     0  0
 25 29  1  0     0  0
 26 30  1  0     0  0
 26 31  2  0     0  0
 27 32  2  0     0  0
 28 33  1  0     0  0
 29 34  1  0     0  0
 30 35  2  0     0  0
 34 36  1  0     0  0
 35 37  1  0     0  0
 36 38  1  0     0  0
 38 39  1  0     0  0
 38 40  2  0     0  0
 28 29  1  0     0  0
 32 35  1  0     0  0
M  STY  4   1 SUP   2 SUP   3 SUP   4 SUP
M  SLB  4   1   1   2   2   3   3   4   4
M  SAL   1  1  21
M  SBL   1  1   6
M  SMT   1 \n5'
M  SBV   1   6   -0.0400    1.1000
M  SCL   1 LGRP
M  SAL   2 15   1   2   3   4   5   6   7   8   9  10  11  12  13  14  15
M  SAL   2  4  16  17  18  19
M  SBL   2  2   4   5
M  SMT   2 C
M  SBV   2   5    0.9600   -2.2200
M  SBV   2   4   -0.0400    1.1200
M  SCL   2 DNA
M  SAP   2  2   1  33 Al  11  20 Br
M  SAL   3  1  20
M  SBL   3  1   4
M  SMT   3 \n3'
M  SBV   3   4    0.0400   -1.1200
M  SCL   3 LGRP
M  SAL   4 15  22  23  24  25  26  27  28  29  30  31  32  33  34  35  36
M  SAL   4  4  37  38  39  40
M  SBL   4  2   5   6
M  SMT   4 C
M  SBV   4   5   -0.9600    2.2200
M  SBV   4   6    0.0400   -1.1000
M  SCL   4 DNA
M  SAP   4  2  33   1 Br  38  21 Al
M  END
>  <prID>
387

>  <IDDB>
97592

>  <pIC50_HIV_Integrase>
4.920818754

>  <Q>
-12.16901948

>  <Activity_Integrase>
Inactive_Integrase

NA
NA
NA
NA
$$$$

  Accelrys05311914342D 1   1.00000     0.00000     0

 43 47  0     0  0            999 V2000
   -0.1828   -1.0552    0.0000 H   0  0  0  0  0  0           0  0  0
   -0.9034   -2.1793    0.0000 O   0  0  0  0  0  0           0  0  0
   -0.8966   -1.4310    0.0000 C   0  0  3  0  0  0           0  0  0
   -1.1310   -0.7207    0.0000 C   0  0  3  0  0  0           0  0  0
   -0.1483   -1.4310    0.0000 C   0  0  0  0  0  0           0  0  0
   -0.5241   -0.2759    0.0000 O   0  0  0  0  0  0           0  0  0
   -1.1310    0.0379    0.0000 C   0  0  0  0  0  0           0  0  0
    0.0828   -0.7207    0.0000 C   0  0  3  0  0  0           0  0  0
   -1.8655    0.0414    0.0000 O   0  0  0  0  0  0           0  0  0
    0.0759    0.0310    0.0000 N   0  0  3  0  0  0           0  0  0
   -2.6276    0.0448    0.0000 P   0  0  3  0  0  0           0  0  0
    0.6966    0.4103    0.0000 C   0  0  0  0  0  0           0  0  0
   -0.5759    0.4034    0.0000 C   0  0  0  0  0  0           0  0  0
   -2.6310    0.8103    0.0000 O   0  0  0  0  0  0           0  0  0
   -2.6310   -0.7172    0.0000 O   0  0  0  0  0  0           0  0  0
    0.7172    1.1621    0.0000 N   0  0  0  0  0  0           0  0  0
    1.3759    0.0414    0.0000 O   0  0  0  0  0  0           0  0  0
   -0.5793    1.1517    0.0000 C   0  0  0  0  0  0           0  0  0
    0.0655    1.5310    0.0000 C   0  0  0  0  0  0           0  0  0
    0.0621    2.2793    0.0000 N   0  0  0  0  0  0           0  0  0
    1.5552    0.2276    0.0000 C   0  0  0  0  0  0           0  0  0
    0.8345    0.0310    0.0000 N   0  0  3  0  0  0           0  0  0
    1.5931    0.9690    0.0000 C   0  0  0  0  0  0           0  0  0
    2.1793   -0.1759    0.0000 N   0  0  0  0  0  0           0  0  0
    0.8414   -0.7207    0.0000 C   0  0  3  0  0  0           0  0  0
    0.4276    0.6517    0.0000 C   0  0  0  0  0  0           0  0  0
    0.8931    1.2379    0.0000 N   0  0  0  0  0  0           0  0  0
    2.2552    1.3103    0.0000 C   0  0  0  0  0  0           0  0  0
    2.8414    0.1621    0.0000 C   0  0  0  0  0  0           0  0  0
    0.2345   -0.2759    0.0000 O   0  0  0  0  0  0           0  0  0
    0.6103   -1.4310    0.0000 C   0  0  0  0  0  0           0  0  0
    2.8793    0.9034    0.0000 N   0  0  0  0  0  0           0  0  0
    2.2931    2.0517    0.0000 O   0  0  0  0  0  0           0  0  0
    3.4655   -0.2414    0.0000 N   0  0  0  0  0  0           0  0  0
   -0.3724   -0.7207    0.0000 C   0  0  3  0  0  0           0  0  0
   -0.1414   -1.4310    0.0000 C   0  0  3  0  0  0           0  0  0
   -0.3724    0.0379    0.0000 C   0  0  0  0  0  0           0  0  0
   -0.1448   -2.1793    0.0000 O   0  0  0  0  0  0           0  0  0
   -1.1069    0.0414    0.0000 O   0  0  0  0  0  0           0  0  0
   -1.8690    0.0448    0.0000 P   0  0  3  0  0  0           0  0  0
   -1.8724    0.8103    0.0000 O   0  0  0  0  0  0           0  0  0
   -1.8724   -0.7172    0.0000 O   0  0  0  0  0  0           0  0  0
   -2.5897   -1.0586    0.0000 O   0  0  0  0  0  0           0  0  0
 16 19  2  0     0  0
 19 20  1  0     0  0
 40  2  1  0     0  0
 11 43  1  0     0  0
  1 38  1  0     0  0
  6  8  1  0     0  0
 18 19  1  0     0  0
  2  3  1  0     0  0
  3  4  1  0     0  0
  3  5  1  0     0  0
  4  6  1  0     0  0
  4  7  1  0     0  0
  5  8  1  0     0  0
  7  9  1  0     0  0
  8 10  1  0     0  0
  9 11  1  0     0  0
 10 12  1  0     0  0
 10 13  1  0     0  0
 11 14  1  0     0  0
 11 15  2  0     0  0
 12 16  1  0     0  0
 12 17  2  0     0  0
 21 22  1  0     0  0
 21 23  2  0     0  0
 21 24  1  0     0  0
 22 25  1  0     0  0
 22 26  1  0     0  0
 23 27  1  0     0  0
 23 28  1  0     0  0
 24 29  2  0     0  0
 25 30  1  0     0  0
 25 31  1  0     0  0
 28 32  1  0     0  0
 28 33  2  0     0  0
 29 34  1  0     0  0
 30 35  1  0     0  0
 31 36  1  0     0  0
 35 37  1  0     0  0
 36 38  1  0     0  0
 37 39  1  0     0  0
 39 40  1  0     0  0
 40 41  1  0     0  0
 40 42  2  0     0  0
 26 27  2  0     0  0
 29 32  1  0     0  0
 35 36  1  0     0  0
 13 18  2  0     0  0
M  STY  4   1 SUP   2 SUP   3 SUP   4 SUP
M  SLB  4   1   1   2   2   3   3   4   4
M  SAL   1  1   1
M  SBL   1  1   5
M  SMT   1 \n3'
M  SBV   1   5    0.0400   -1.1200
M  SCL   1 LGRP
M  SAL   2 15   2   3   4   5   6   7   8   9  10  11  12  13  14  15  16
M  SAL   2  4  17  18  19  20
M  SBL   2  2   3   4
M  SMT   2 C
M  SBV   2   3   -0.9700    2.2200
M  SBV   2   4    0.0300   -1.1000
M  SCL   2 DNA
M  SAP   2  2   2  40 Br  11  43 Al
M  SAL   3 15  21  22  23  24  25  26  27  28  29  30  31  32  33  34  35
M  SAL   3  7  36  37  38  39  40  41  42
M  SBL   3  2   3   5
M  SMT   3 G
M  SBV   3   5   -0.0400    1.1200
M  SBV   3   3    0.9700   -2.2200
M  SCL   3 DNA
M  SAP   3  2  38   1 Br  40   2 Al
M  SAL   4  1  43
M  SBL   4  1   4
M  SMT   4 \n5'
M  SBV   4   4   -0.0300    1.1000
M  SCL   4 LGRP
M  END
>  <prID>
388

>  <IDDB>
97593

>  <pIC50_HIV_Integrase>
4.906578315

>  <Q>
-13.06177487

>  <Activity_Integrase>
Inactive_Integrase

NA
NA
NA
NA
$$$$

  Accelrys05311914342D 1   1.00000     0.00000     0

 41 44  0     0  0            999 V2000
    0.4276   -0.7552    0.0000 C   0  0  3  0  0  0           0  0  0
    0.4207   -0.0034    0.0000 N   0  0  3  0  0  0           0  0  0
   -0.1793   -0.3103    0.0000 O   0  0  0  0  0  0           0  0  0
    0.1966   -1.4655    0.0000 C   0  0  0  0  0  0           0  0  0
    1.0414    0.3759    0.0000 C   0  0  0  0  0  0           0  0  0
   -0.2310    0.3655    0.0000 C   0  0  0  0  0  0           0  0  0
   -0.7862   -0.7552    0.0000 C   0  0  3  0  0  0           0  0  0
   -0.5517   -1.4655    0.0000 C   0  0  3  0  0  0           0  0  0
    1.0621    1.1241    0.0000 N   0  0  0  0  0  0           0  0  0
    1.7207    0.0069    0.0000 O   0  0  0  0  0  0           0  0  0
   -0.2345    1.1172    0.0000 C   0  0  0  0  0  0           0  0  0
   -0.7862    0.0000    0.0000 C   0  0  0  0  0  0           0  0  0
   -0.5586   -2.2138    0.0000 O   0  0  0  0  0  0           0  0  0
    0.4103    1.4966    0.0000 C   0  0  0  0  0  0           0  0  0
   -1.5207    0.0069    0.0000 O   0  0  0  0  0  0           0  0  0
    0.4034    2.2448    0.0000 N   0  0  0  0  0  0           0  0  0
   -2.2828    0.0103    0.0000 P   0  0  3  0  0  0           0  0  0
   -2.2862    0.7759    0.0000 O   0  0  0  0  0  0           0  0  0
   -2.2862   -0.7517    0.0000 O   0  0  0  0  0  0           0  0  0
   -1.5241    0.0103    0.0000 P   0  0  3  0  0  0           0  0  0
   -0.7621    0.0069    0.0000 O   0  0  0  0  0  0           0  0  0
   -1.5276    0.7759    0.0000 O   0  0  0  0  0  0           0  0  0
   -1.5276   -0.7517    0.0000 O   0  0  0  0  0  0           0  0  0
   -0.0276    0.0000    0.0000 C   0  0  0  0  0  0           0  0  0
   -0.0276   -0.7552    0.0000 C   0  0  3  0  0  0           0  0  0
    0.5793   -0.3103    0.0000 O   0  0  0  0  0  0           0  0  0
    0.2034   -1.4655    0.0000 C   0  0  3  0  0  0           0  0  0
    1.1862   -0.7552    0.0000 C   0  0  3  0  0  0           0  0  0
    0.9552   -1.4655    0.0000 C   0  0  0  0  0  0           0  0  0
    0.2000   -2.2138    0.0000 O   0  0  0  0  0  0           0  0  0
    1.1793   -0.0034    0.0000 N   0  0  3  0  0  0           0  0  0
    1.8000    0.3759    0.0000 C   0  0  0  0  0  0           0  0  0
    0.5276    0.3655    0.0000 C   0  0  0  0  0  0           0  0  0
    1.8207    1.1241    0.0000 N   0  0  0  0  0  0           0  0  0
    2.4793    0.0069    0.0000 O   0  0  0  0  0  0           0  0  0
    0.5241    1.1172    0.0000 C   0  0  0  0  0  0           0  0  0
    1.1690    1.4966    0.0000 C   0  0  0  0  0  0           0  0  0
   -0.1276    1.4862    0.0000 C   0  0  0  0  0  0           0  0  0
    1.1621    2.2448    0.0000 O   0  0  0  0  0  0           0  0  0
    0.1621   -1.1138    0.0000 H   0  0  0  0  0  0           0  0  0
   -2.2448   -1.0931    0.0000 O   0  0  0  0  0  0           0  0  0
 14 16  1  0     0  0
 15 17  1  0     0  0
 40 30  1  0     0  0
 13 20  1  0     0  0
 17 41  1  0     0  0
 17 18  1  0     0  0
 17 19  2  0     0  0
  7  8  1  0     0  0
 11 14  1  0     0  0
  1  2  1  0     0  0
  1  3  1  0     0  0
  1  4  1  0     0  0
  2  5  1  0     0  0
  2  6  1  0     0  0
  3  7  1  0     0  0
  4  8  1  0     0  0
  5  9  1  0     0  0
  5 10  2  0     0  0
  6 11  2  0     0  0
  7 12  1  0     0  0
  8 13  1  0     0  0
 20 21  1  0     0  0
 20 22  1  0     0  0
 20 23  2  0     0  0
 21 24  1  0     0  0
 24 25  1  0     0  0
 25 26  1  0     0  0
 25 27  1  0     0  0
 26 28  1  0     0  0
 27 29  1  0     0  0
 27 30  1  0     0  0
 28 31  1  0     0  0
 31 32  1  0     0  0
 31 33  1  0     0  0
 32 34  1  0     0  0
 32 35  2  0     0  0
 33 36  2  0     0  0
 34 37  1  0     0  0
 36 38  1  0     0  0
 37 39  2  0     0  0
 28 29  1  0     0  0
 36 37  1  0     0  0
  9 14  2  0     0  0
 12 15  1  0     0  0
M  STY  4   1 SUP   2 SUP   3 SUP   4 SUP
M  SLB  4   1   1   2   2   3   3   4   4
M  SAL   1 15  20  21  22  23  24  25  26  27  28  29  30  31  32  33  34
M  SAL   1  5  35  36  37  38  39
M  SBL   1  2   3   4
M  SMT   1 T
M  SBV   1   4    0.9600   -2.2300
M  SBV   1   3   -0.0500    1.1000
M  SCL   1 DNA
M  SAP   1  2  20  13 Al  30  40 Br
M  SAL   2  1  40
M  SBL   2  1   3
M  SMT   2 \n3'
M  SBV   2   3    0.0500   -1.1000
M  SCL   2 LGRP
M  SAL   3 15   1   2   3   4   5   6   7   8   9  10  11  12  13  14  15
M  SAL   3  4  16  17  18  19
M  SBL   3  2   4   5
M  SMT   3 C
M  SBV   3   4   -0.9600    2.2300
M  SBV   3   5    0.0400   -1.1100
M  SCL   3 DNA
M  SAP   3  2  13  20 Br  17  41 Al
M  SAL   4  1  41
M  SBL   4  1   5
M  SMT   4 \n5'
M  SBV   4   5   -0.0400    1.1100
M  SCL   4 LGRP
M  END
>  <prID>
389

>  <IDDB>
97594

>  <pIC50_HIV_Integrase>
5.22184875

>  <Q>
-11.52490632

>  <Activity_Integrase>
Inactive_Integrase

NA
NA
NA
NA
$$$$

  Accelrys05311914342D 1   1.00000     0.00000     0

 45 50  0     0  0            999 V2000
    0.6241    0.2207    0.0000 C   0  0  0  0  0  0           0  0  0
   -0.0966    0.0241    0.0000 N   0  0  3  0  0  0           0  0  0
    0.6621    0.9621    0.0000 C   0  0  0  0  0  0           0  0  0
    1.2483   -0.1828    0.0000 N   0  0  0  0  0  0           0  0  0
   -0.0897   -0.7310    0.0000 C   0  0  3  0  0  0           0  0  0
   -0.5034    0.6448    0.0000 C   0  0  0  0  0  0           0  0  0
   -0.0379    1.2310    0.0000 N   0  0  0  0  0  0           0  0  0
    1.3241    1.3000    0.0000 C   0  0  0  0  0  0           0  0  0
    1.9103    0.1552    0.0000 C   0  0  0  0  0  0           0  0  0
   -0.6966   -0.2828    0.0000 O   0  0  0  0  0  0           0  0  0
   -0.3207   -1.4379    0.0000 C   0  0  0  0  0  0           0  0  0
    1.9483    0.8966    0.0000 N   0  0  0  0  0  0           0  0  0
    1.3621    2.0414    0.0000 O   0  0  0  0  0  0           0  0  0
    2.5345   -0.2483    0.0000 N   0  0  0  0  0  0           0  0  0
   -1.3034   -0.7310    0.0000 C   0  0  3  0  0  0           0  0  0
   -1.0724   -1.4379    0.0000 C   0  0  3  0  0  0           0  0  0
   -1.3034    0.0276    0.0000 C   0  0  0  0  0  0           0  0  0
   -1.0759   -2.1897    0.0000 O   0  0  0  0  0  0           0  0  0
   -2.0379    0.0310    0.0000 O   0  0  0  0  0  0           0  0  0
   -2.8000    0.0379    0.0000 P   0  0  3  0  0  0           0  0  0
   -2.8034    0.8034    0.0000 O   0  0  0  0  0  0           0  0  0
   -2.8034   -0.7276    0.0000 O   0  0  0  0  0  0           0  0  0
   -2.0414    0.0379    0.0000 P   0  0  3  0  0  0           0  0  0
   -1.2793    0.0310    0.0000 O   0  0  0  0  0  0           0  0  0
   -2.0448    0.8034    0.0000 O   0  0  0  0  0  0           0  0  0
   -2.0448   -0.7276    0.0000 O   0  0  0  0  0  0           0  0  0
   -0.5207    0.0276    0.0000 C   0  0  0  0  0  0           0  0  0
   -0.5448   -0.7310    0.0000 C   0  0  3  0  0  0           0  0  0
    0.0621   -0.2828    0.0000 O   0  0  0  0  0  0           0  0  0
   -0.3138   -1.4379    0.0000 C   0  0  3  0  0  0           0  0  0
    0.6690   -0.7310    0.0000 C   0  0  3  0  0  0           0  0  0
    0.4379   -1.4379    0.0000 C   0  0  0  0  0  0           0  0  0
   -0.3172   -2.1897    0.0000 O   0  0  0  0  0  0           0  0  0
    0.6621    0.0241    0.0000 N   0  0  3  0  0  0           0  0  0
    1.3828    0.2207    0.0000 C   0  0  0  0  0  0           0  0  0
    0.2552    0.6448    0.0000 C   0  0  0  0  0  0           0  0  0
    1.4207    0.9621    0.0000 C   0  0  0  0  0  0           0  0  0
    2.0069   -0.1828    0.0000 N   0  0  0  0  0  0           0  0  0
    0.7207    1.2310    0.0000 N   0  0  0  0  0  0           0  0  0
    2.0828    1.3000    0.0000 C   0  0  0  0  0  0           0  0  0
    2.6690    0.1552    0.0000 C   0  0  0  0  0  0           0  0  0
    2.7069    0.8966    0.0000 N   0  0  0  0  0  0           0  0  0
    2.1207    2.0414    0.0000 N   0  0  0  0  0  0           0  0  0
   -0.3552   -1.0621    0.0000 H   0  0  0  0  0  0           0  0  0
   -2.7621   -1.0690    0.0000 O   0  0  0  0  0  0           0  0  0
  9 14  1  0     0  0
 10 15  1  0     0  0
 11 16  1  0     0  0
 15 17  1  0     0  0
 16 18  1  0     0  0
 18 23  1  0     0  0
 20 45  1  0     0  0
 44 33  1  0     0  0
 17 19  1  0     0  0
 19 20  1  0     0  0
 20 21  1  0     0  0
 20 22  2  0     0  0
  6  7  2  0     0  0
  9 12  1  0     0  0
 15 16  1  0     0  0
  1  2  1  0     0  0
  1  3  2  0     0  0
  1  4  1  0     0  0
  2  5  1  0     0  0
  2  6  1  0     0  0
  3  7  1  0     0  0
  3  8  1  0     0  0
  4  9  2  0     0  0
  5 10  1  0     0  0
  5 11  1  0     0  0
 23 24  1  0     0  0
 23 25  1  0     0  0
 23 26  2  0     0  0
 24 27  1  0     0  0
 27 28  1  0     0  0
 28 29  1  0     0  0
 28 30  1  0     0  0
 29 31  1  0     0  0
 30 32  1  0     0  0
 30 33  1  0     0  0
 31 34  1  0     0  0
 34 35  1  0     0  0
 34 36  1  0     0  0
 35 37  2  0     0  0
 35 38  1  0     0  0
 36 39  2  0     0  0
 37 40  1  0     0  0
 38 41  2  0     0  0
 40 42  2  0     0  0
 40 43  1  0     0  0
 31 32  1  0     0  0
 37 39  1  0     0  0
 41 42  1  0     0  0
  8 12  1  0     0  0
  8 13  2  0     0  0
M  STY  4   1 SUP   2 SUP   3 SUP   4 SUP
M  SLB  4   1   1   2   2   3   3   4   4
M  SAL   1 15  23  24  25  26  27  28  29  30  31  32  33  34  35  36  37
M  SAL   1  6  38  39  40  41  42  43
M  SBL   1  2   6   8
M  SMT   1 A
M  SBV   1   6    0.9700   -2.2300
M  SBV   1   8   -0.0300    1.1300
M  SCL   1 DNA
M  SAP   1  2  23  18 Al  33  44 Br
M  SAL   2  1  44
M  SBL   2  1   8
M  SMT   2 \n3'
M  SBV   2   8    0.0300   -1.1300
M  SCL   2 LGRP
M  SAL   3 15   1   2   3   4   5   6   7   8   9  10  11  12  13  14  15
M  SAL   3  7  16  17  18  19  20  21  22
M  SBL   3  2   6   7
M  SMT   3 G
M  SBV   3   6   -0.9700    2.2300
M  SBV   3   7    0.0300   -1.1100
M  SCL   3 DNA
M  SAP   3  2  18  23 Br  20  45 Al
M  SAL   4  1  45
M  SBL   4  1   7
M  SMT   4 \n5'
M  SBV   4   7   -0.0300    1.1100
M  SCL   4 LGRP
M  END
>  <prID>
390

>  <IDDB>
97595

>  <pIC50_HIV_Integrase>
4

>  <Q>
-12.85724679

>  <Activity_Integrase>
Inactive_Integrase

NA
NA
NA
NA
$$$$

  Accelrys05311914342D 1   1.00000     0.00000     0

 43 47  0     0  0            999 V2000
   -0.1276   -1.0552    0.0000 H   0  0  0  0  0  0           0  0  0
   -1.8138    0.0448    0.0000 P   0  0  3  0  0  0           0  0  0
   -1.0517    0.0414    0.0000 O   0  0  0  0  0  0           0  0  0
   -1.8207    0.8103    0.0000 O   0  0  0  0  0  0           0  0  0
   -1.8207   -0.7172    0.0000 O   0  0  0  0  0  0           0  0  0
   -0.3207    0.0379    0.0000 C   0  0  0  0  0  0           0  0  0
   -0.3172   -0.7207    0.0000 C   0  0  3  0  0  0           0  0  0
    0.2897   -0.2759    0.0000 O   0  0  0  0  0  0           0  0  0
   -0.0862   -1.4310    0.0000 C   0  0  3  0  0  0           0  0  0
    0.8966   -0.7207    0.0000 C   0  0  3  0  0  0           0  0  0
    0.6655   -1.4310    0.0000 C   0  0  0  0  0  0           0  0  0
   -0.0897   -2.1793    0.0000 O   0  0  0  0  0  0           0  0  0
    0.8897    0.0310    0.0000 N   0  0  3  0  0  0           0  0  0
    1.5103    0.4103    0.0000 C   0  0  0  0  0  0           0  0  0
    0.2379    0.4034    0.0000 C   0  0  0  0  0  0           0  0  0
    1.5310    1.1621    0.0000 N   0  0  0  0  0  0           0  0  0
    2.1862    0.0414    0.0000 O   0  0  0  0  0  0           0  0  0
    0.2310    1.1517    0.0000 C   0  0  0  0  0  0           0  0  0
    0.8793    1.5310    0.0000 C   0  0  0  0  0  0           0  0  0
    0.8724    2.2793    0.0000 N   0  0  0  0  0  0           0  0  0
   -2.5345   -1.0586    0.0000 O   0  0  0  0  0  0           0  0  0
    0.1310    0.0310    0.0000 N   0  0  3  0  0  0           0  0  0
    0.8517    0.2276    0.0000 C   0  0  0  0  0  0           0  0  0
    0.1379   -0.7207    0.0000 C   0  0  3  0  0  0           0  0  0
   -0.2759    0.6517    0.0000 C   0  0  0  0  0  0           0  0  0
    0.8897    0.9690    0.0000 C   0  0  0  0  0  0           0  0  0
    1.4759   -0.1759    0.0000 N   0  0  0  0  0  0           0  0  0
   -0.0931   -1.4310    0.0000 C   0  0  0  0  0  0           0  0  0
   -0.4690   -0.2759    0.0000 O   0  0  0  0  0  0           0  0  0
    0.1897    1.2379    0.0000 N   0  0  0  0  0  0           0  0  0
    1.5517    1.3103    0.0000 C   0  0  0  0  0  0           0  0  0
    2.1379    0.1621    0.0000 C   0  0  0  0  0  0           0  0  0
   -0.8448   -1.4310    0.0000 C   0  0  3  0  0  0           0  0  0
   -1.0759   -0.7207    0.0000 C   0  0  3  0  0  0           0  0  0
    2.1759    0.9034    0.0000 N   0  0  0  0  0  0           0  0  0
    1.5897    2.0517    0.0000 O   0  0  0  0  0  0           0  0  0
    2.7621   -0.2414    0.0000 N   0  0  0  0  0  0           0  0  0
   -0.8483   -2.1793    0.0000 O   0  0  0  0  0  0           0  0  0
   -1.0759    0.0379    0.0000 C   0  0  0  0  0  0           0  0  0
   -1.8103    0.0414    0.0000 O   0  0  0  0  0  0           0  0  0
   -2.5724    0.0448    0.0000 P   0  0  3  0  0  0           0  0  0
   -2.5759    0.8103    0.0000 O   0  0  0  0  0  0           0  0  0
   -2.5759   -0.7172    0.0000 O   0  0  0  0  0  0           0  0  0
 14 17  2  0     0  0
 15 18  2  0     0  0
  1 12  1  0     0  0
 38  2  1  0     0  0
 41 21  1  0     0  0
 16 19  2  0     0  0
 19 20  1  0     0  0
 10 11  1  0     0  0
 18 19  1  0     0  0
  2  3  1  0     0  0
  2  4  1  0     0  0
  2  5  2  0     0  0
  3  6  1  0     0  0
  6  7  1  0     0  0
  7  8  1  0     0  0
  7  9  1  0     0  0
  8 10  1  0     0  0
  9 11  1  0     0  0
  9 12  1  0     0  0
 10 13  1  0     0  0
 13 14  1  0     0  0
 13 15  1  0     0  0
 14 16  1  0     0  0
 22 23  1  0     0  0
 22 24  1  0     0  0
 22 25  1  0     0  0
 23 26  2  0     0  0
 23 27  1  0     0  0
 24 28  1  0     0  0
 24 29  1  0     0  0
 25 30  2  0     0  0
 26 31  1  0     0  0
 27 32  2  0     0  0
 28 33  1  0     0  0
 29 34  1  0     0  0
 31 35  1  0     0  0
 31 36  2  0     0  0
 32 37  1  0     0  0
 33 38  1  0     0  0
 34 39  1  0     0  0
 39 40  1  0     0  0
 40 41  1  0     0  0
 41 42  1  0     0  0
 41 43  2  0     0  0
 26 30  1  0     0  0
 32 35  1  0     0  0
 33 34  1  0     0  0
M  STY  4   1 SUP   2 SUP   3 SUP   4 SUP
M  SLB  4   1   1   2   2   3   3   4   4
M  SAL   1  1  21
M  SBL   1  1   5
M  SMT   1 \n5'
M  SBV   1   5   -0.0400    1.1000
M  SCL   1 LGRP
M  SAL   2 15   2   3   4   5   6   7   8   9  10  11  12  13  14  15  16
M  SAL   2  4  17  18  19  20
M  SBL   2  2   3   4
M  SMT   2 C
M  SBV   2   4    0.9700   -2.2200
M  SBV   2   3   -0.0300    1.1200
M  SCL   2 DNA
M  SAP   2  2   2  38 Al  12   1 Br
M  SAL   3  1   1
M  SBL   3  1   3
M  SMT   3 \n3'
M  SBV   3   3    0.0300   -1.1200
M  SCL   3 LGRP
M  SAL   4 15  22  23  24  25  26  27  28  29  30  31  32  33  34  35  36
M  SAL   4  7  37  38  39  40  41  42  43
M  SBL   4  2   4   5
M  SMT   4 G
M  SBV   4   4   -0.9700    2.2200
M  SBV   4   5    0.0400   -1.1000
M  SCL   4 DNA
M  SAP   4  2  38   2 Br  41  21 Al
M  END
>  <prID>
391

>  <IDDB>
97596

>  <pIC50_HIV_Integrase>
4

>  <Q>
-13.06177404

>  <Activity_Integrase>
Inactive_Integrase

NA
NA
NA
NA
$$$$

  Accelrys05311914342D 1   1.00000     0.00000     0

 46 51  0     0  0            999 V2000
   -2.1138    0.0414    0.0000 P   0  0  3  0  0  0           0  0  0
   -1.3517    0.0379    0.0000 O   0  0  0  0  0  0           0  0  0
   -2.1172    0.8103    0.0000 O   0  0  0  0  0  0           0  0  0
   -2.1172   -0.7207    0.0000 O   0  0  0  0  0  0           0  0  0
   -0.6172    0.0345    0.0000 C   0  0  0  0  0  0           0  0  0
   -0.6172   -0.7241    0.0000 C   0  0  3  0  0  0           0  0  0
   -0.0103   -0.2793    0.0000 O   0  0  0  0  0  0           0  0  0
   -0.3862   -1.4345    0.0000 C   0  0  3  0  0  0           0  0  0
    0.5966   -0.7241    0.0000 C   0  0  3  0  0  0           0  0  0
    0.3655   -1.4345    0.0000 C   0  0  0  0  0  0           0  0  0
   -0.3897   -2.1828    0.0000 O   0  0  0  0  0  0           0  0  0
    0.5897    0.0310    0.0000 N   0  0  3  0  0  0           0  0  0
    1.3103    0.2241    0.0000 C   0  0  0  0  0  0           0  0  0
    0.1828    0.6517    0.0000 C   0  0  0  0  0  0           0  0  0
    1.3483    0.9690    0.0000 C   0  0  0  0  0  0           0  0  0
    1.9345   -0.1793    0.0000 N   0  0  0  0  0  0           0  0  0
    0.6483    1.2379    0.0000 N   0  0  0  0  0  0           0  0  0
    2.0103    1.3069    0.0000 C   0  0  0  0  0  0           0  0  0
    2.5966    0.1586    0.0000 C   0  0  0  0  0  0           0  0  0
    2.6345    0.9034    0.0000 N   0  0  0  0  0  0           0  0  0
    2.0483    2.0483    0.0000 O   0  0  0  0  0  0           0  0  0
    3.2207   -0.2448    0.0000 N   0  0  0  0  0  0           0  0  0
   -2.8345   -1.0621    0.0000 O   0  0  0  0  0  0           0  0  0
   -0.4276   -1.0586    0.0000 H   0  0  0  0  0  0           0  0  0
   -0.1690    0.0310    0.0000 N   0  0  3  0  0  0           0  0  0
   -0.1621   -0.7241    0.0000 C   0  0  3  0  0  0           0  0  0
    0.5517    0.2241    0.0000 C   0  0  0  0  0  0           0  0  0
   -0.5759    0.6517    0.0000 C   0  0  0  0  0  0           0  0  0
   -0.7690   -0.2793    0.0000 O   0  0  0  0  0  0           0  0  0
   -0.3931   -1.4345    0.0000 C   0  0  0  0  0  0           0  0  0
    0.5897    0.9690    0.0000 C   0  0  0  0  0  0           0  0  0
    1.1759   -0.1793    0.0000 N   0  0  0  0  0  0           0  0  0
   -0.1103    1.2379    0.0000 N   0  0  0  0  0  0           0  0  0
   -1.3759   -0.7241    0.0000 C   0  0  3  0  0  0           0  0  0
   -1.1448   -1.4345    0.0000 C   0  0  3  0  0  0           0  0  0
    1.2517    1.3069    0.0000 C   0  0  0  0  0  0           0  0  0
    1.8379    0.1586    0.0000 C   0  0  0  0  0  0           0  0  0
   -1.3759    0.0345    0.0000 C   0  0  0  0  0  0           0  0  0
   -1.1483   -2.1828    0.0000 O   0  0  0  0  0  0           0  0  0
    1.8759    0.9034    0.0000 N   0  0  0  0  0  0           0  0  0
    1.2897    2.0483    0.0000 O   0  0  0  0  0  0           0  0  0
    2.4621   -0.2448    0.0000 N   0  0  0  0  0  0           0  0  0
   -2.1103    0.0379    0.0000 O   0  0  0  0  0  0           0  0  0
   -2.8724    0.0414    0.0000 P   0  0  3  0  0  0           0  0  0
   -2.8759    0.8103    0.0000 O   0  0  0  0  0  0           0  0  0
   -2.8759   -0.7207    0.0000 O   0  0  0  0  0  0           0  0  0
 12 14  1  0     0  0
 13 15  2  0     0  0
 13 16  1  0     0  0
 14 17  2  0     0  0
 44 23  1  0     0  0
 24 11  1  0     0  0
 39  1  1  0     0  0
 15 18  1  0     0  0
 16 19  2  0     0  0
 18 20  1  0     0  0
 18 21  2  0     0  0
 19 22  1  0     0  0
  9 10  1  0     0  0
 15 17  1  0     0  0
 19 20  1  0     0  0
  1  2  1  0     0  0
  1  3  1  0     0  0
  1  4  2  0     0  0
  2  5  1  0     0  0
  5  6  1  0     0  0
  6  7  1  0     0  0
  6  8  1  0     0  0
  7  9  1  0     0  0
  8 10  1  0     0  0
  8 11  1  0     0  0
  9 12  1  0     0  0
 12 13  1  0     0  0
 25 26  1  0     0  0
 25 27  1  0     0  0
 25 28  1  0     0  0
 26 29  1  0     0  0
 26 30  1  0     0  0
 27 31  2  0     0  0
 27 32  1  0     0  0
 28 33  2  0     0  0
 29 34  1  0     0  0
 30 35  1  0     0  0
 31 36  1  0     0  0
 32 37  2  0     0  0
 34 38  1  0     0  0
 35 39  1  0     0  0
 36 40  1  0     0  0
 36 41  2  0     0  0
 37 42  1  0     0  0
 38 43  1  0     0  0
 43 44  1  0     0  0
 44 45  1  0     0  0
 44 46  2  0     0  0
 31 33  1  0     0  0
 34 35  1  0     0  0
 37 40  1  0     0  0
M  STY  4   1 SUP   2 SUP   3 SUP   4 SUP
M  SLB  4   1   1   2   2   3   3   4   4
M  SAL   1 15   1   2   3   4   5   6   7   8   9  10  11  12  13  14  15
M  SAL   1  7  16  17  18  19  20  21  22
M  SBL   1  2   6   7
M  SMT   1 G
M  SBV   1   7    0.9700   -2.2200
M  SBV   1   6   -0.0300    1.1200
M  SCL   1 DNA
M  SAP   1  2   1  39 Al  11  24 Br
M  SAL   2  1  24
M  SBL   2  1   6
M  SMT   2 \n3'
M  SBV   2   6    0.0300   -1.1200
M  SCL   2 LGRP
M  SAL   3  1  23
M  SBL   3  1   5
M  SMT   3 \n5'
M  SBV   3   5   -0.0400    1.1000
M  SCL   3 LGRP
M  SAL   4 15  25  26  27  28  29  30  31  32  33  34  35  36  37  38  39
M  SAL   4  7  40  41  42  43  44  45  46
M  SBL   4  2   5   7
M  SMT   4 G
M  SBV   4   7   -0.9700    2.2200
M  SBV   4   5    0.0400   -1.1000
M  SCL   4 DNA
M  SAP   4  2  39   1 Br  44  23 Al
M  END
>  <prID>
392

>  <IDDB>
97597

>  <pIC50_HIV_Integrase>
4.93930216

>  <Q>
-13.95452944

>  <Activity_Integrase>
Inactive_Integrase

NA
NA
NA
NA
$$$$

  Accelrys05311914342D 1   1.00000     0.00000     0

 44 48  0     0  0            999 V2000
    0.8621    0.1931    0.0000 C   0  0  0  0  0  0           0  0  0
    0.1414   -0.0034    0.0000 N   0  0  3  0  0  0           0  0  0
    0.9000    0.9345    0.0000 C   0  0  0  0  0  0           0  0  0
    1.4862   -0.2103    0.0000 N   0  0  0  0  0  0           0  0  0
    0.1483   -0.7552    0.0000 C   0  0  3  0  0  0           0  0  0
   -0.2655    0.6172    0.0000 C   0  0  0  0  0  0           0  0  0
    0.2000    1.2034    0.0000 N   0  0  0  0  0  0           0  0  0
    1.5621    1.2724    0.0000 C   0  0  0  0  0  0           0  0  0
    2.1483    0.1276    0.0000 C   0  0  0  0  0  0           0  0  0
   -0.4586   -0.3103    0.0000 O   0  0  0  0  0  0           0  0  0
   -0.0828   -1.4655    0.0000 C   0  0  0  0  0  0           0  0  0
    2.1862    0.8690    0.0000 N   0  0  0  0  0  0           0  0  0
    1.5966    2.0138    0.0000 O   0  0  0  0  0  0           0  0  0
    2.7724   -0.2759    0.0000 N   0  0  0  0  0  0           0  0  0
   -1.0655   -0.7552    0.0000 C   0  0  3  0  0  0           0  0  0
   -0.8345   -1.4655    0.0000 C   0  0  3  0  0  0           0  0  0
   -1.0690    0.0000    0.0000 C   0  0  0  0  0  0           0  0  0
   -0.8379   -2.2172    0.0000 O   0  0  0  0  0  0           0  0  0
   -1.8000    0.0069    0.0000 O   0  0  0  0  0  0           0  0  0
   -2.5621    0.0103    0.0000 P   0  0  3  0  0  0           0  0  0
   -2.5690    0.7759    0.0000 O   0  0  0  0  0  0           0  0  0
   -2.5690   -0.7517    0.0000 O   0  0  0  0  0  0           0  0  0
   -1.8034    0.0103    0.0000 P   0  0  3  0  0  0           0  0  0
   -1.0414    0.0069    0.0000 O   0  0  0  0  0  0           0  0  0
   -1.8103    0.7759    0.0000 O   0  0  0  0  0  0           0  0  0
   -1.8103   -0.7517    0.0000 O   0  0  0  0  0  0           0  0  0
   -0.3103    0.0000    0.0000 C   0  0  0  0  0  0           0  0  0
   -0.3069   -0.7552    0.0000 C   0  0  3  0  0  0           0  0  0
    0.3000   -0.3103    0.0000 O   0  0  0  0  0  0           0  0  0
   -0.0759   -1.4655    0.0000 C   0  0  3  0  0  0           0  0  0
    0.9069   -0.7552    0.0000 C   0  0  3  0  0  0           0  0  0
    0.6724   -1.4655    0.0000 C   0  0  0  0  0  0           0  0  0
   -0.0793   -2.2172    0.0000 O   0  0  0  0  0  0           0  0  0
    0.9000   -0.0034    0.0000 N   0  0  3  0  0  0           0  0  0
    1.5207    0.3759    0.0000 C   0  0  0  0  0  0           0  0  0
    0.2483    0.3655    0.0000 C   0  0  0  0  0  0           0  0  0
    1.5379    1.1241    0.0000 N   0  0  0  0  0  0           0  0  0
    2.1966    0.0069    0.0000 O   0  0  0  0  0  0           0  0  0
    0.2414    1.1172    0.0000 C   0  0  0  0  0  0           0  0  0
    0.8897    1.4931    0.0000 C   0  0  0  0  0  0           0  0  0
   -0.4103    1.4862    0.0000 C   0  0  0  0  0  0           0  0  0
    0.8828    2.2448    0.0000 O   0  0  0  0  0  0           0  0  0
   -0.1172   -1.1172    0.0000 H   0  0  0  0  0  0           0  0  0
   -2.5276   -1.0931    0.0000 O   0  0  0  0  0  0           0  0  0
  8 12  1  0     0  0
  8 13  2  0     0  0
  9 14  1  0     0  0
 10 15  1  0     0  0
 11 16  1  0     0  0
 15 17  1  0     0  0
 18 23  1  0     0  0
 20 44  1  0     0  0
 43 33  1  0     0  0
 16 18  1  0     0  0
 17 19  1  0     0  0
 19 20  1  0     0  0
 20 21  1  0     0  0
 20 22  2  0     0  0
  6  7  2  0     0  0
  9 12  1  0     0  0
 15 16  1  0     0  0
  1  2  1  0     0  0
  1  3  2  0     0  0
  1  4  1  0     0  0
  2  5  1  0     0  0
  2  6  1  0     0  0
  3  7  1  0     0  0
  3  8  1  0     0  0
  4  9  2  0     0  0
 23 24  1  0     0  0
 23 25  1  0     0  0
 23 26  2  0     0  0
 24 27  1  0     0  0
 27 28  1  0     0  0
 28 29  1  0     0  0
 28 30  1  0     0  0
 29 31  1  0     0  0
 30 32  1  0     0  0
 30 33  1  0     0  0
 31 34  1  0     0  0
 34 35  1  0     0  0
 34 36  1  0     0  0
 35 37  1  0     0  0
 35 38  2  0     0  0
 36 39  2  0     0  0
 37 40  1  0     0  0
 39 41  1  0     0  0
 40 42  2  0     0  0
 31 32  1  0     0  0
 39 40  1  0     0  0
  5 10  1  0     0  0
  5 11  1  0     0  0
M  STY  4   1 SUP   2 SUP   3 SUP   4 SUP
M  SLB  4   1   1   2   2   3   3   4   4
M  SAL   1 15  23  24  25  26  27  28  29  30  31  32  33  34  35  36  37
M  SAL   1  5  38  39  40  41  42
M  SBL   1  2   7   9
M  SMT   1 T
M  SBV   1   7    0.9600   -2.2300
M  SBV   1   9   -0.0400    1.1000
M  SCL   1 DNA
M  SAP   1  2  23  18 Al  33  43 Br
M  SAL   2 15   1   2   3   4   5   6   7   8   9  10  11  12  13  14  15
M  SAL   2  7  16  17  18  19  20  21  22
M  SBL   2  2   7   8
M  SMT   2 G
M  SBV   2   7   -0.9600    2.2300
M  SBV   2   8    0.0400   -1.1100
M  SCL   2 DNA
M  SAP   2  2  18  23 Br  20  44 Al
M  SAL   3  1  43
M  SBL   3  1   9
M  SMT   3 \n3'
M  SBV   3   9    0.0400   -1.1000
M  SCL   3 LGRP
M  SAL   4  1  44
M  SBL   4  1   8
M  SMT   4 \n5'
M  SBV   4   8   -0.0400    1.1100
M  SCL   4 LGRP
M  END
>  <prID>
393

>  <IDDB>
97598

>  <pIC50_HIV_Integrase>
5.124938737

>  <Q>
-12.41766089

>  <Activity_Integrase>
Inactive_Integrase

NA
NA
NA
NA
$$$$

  Accelrys05311914342D 1   1.00000     0.00000     0

 43 47  0     0  0            999 V2000
   -0.0690   -1.0966    0.0000 H   0  0  0  0  0  0           0  0  0
   -2.4793   -1.1172    0.0000 O   0  0  0  0  0  0           0  0  0
    0.9448   -0.0103    0.0000 N   0  0  3  0  0  0           0  0  0
    1.6690    0.1862    0.0000 C   0  0  0  0  0  0           0  0  0
    0.9517   -0.7621    0.0000 C   0  0  3  0  0  0           0  0  0
    0.5379    0.6103    0.0000 C   0  0  0  0  0  0           0  0  0
    1.7034    0.9276    0.0000 C   0  0  0  0  0  0           0  0  0
    2.2897   -0.2172    0.0000 N   0  0  0  0  0  0           0  0  0
    0.3448   -0.3172    0.0000 O   0  0  0  0  0  0           0  0  0
    0.7207   -1.4724    0.0000 C   0  0  0  0  0  0           0  0  0
    1.0069    1.1966    0.0000 N   0  0  0  0  0  0           0  0  0
    2.3655    1.2655    0.0000 C   0  0  0  0  0  0           0  0  0
    2.9517    0.1207    0.0000 C   0  0  0  0  0  0           0  0  0
   -0.2586   -0.7621    0.0000 C   0  0  3  0  0  0           0  0  0
   -0.0276   -1.4724    0.0000 C   0  0  3  0  0  0           0  0  0
    2.9897    0.8621    0.0000 N   0  0  0  0  0  0           0  0  0
    2.4034    2.0103    0.0000 N   0  0  0  0  0  0           0  0  0
   -0.2379   -0.0034    0.0000 C   0  0  0  0  0  0           0  0  0
   -0.0310   -2.2207    0.0000 O   0  0  0  0  0  0           0  0  0
   -0.9966    0.0000    0.0000 O   0  0  0  0  0  0           0  0  0
   -1.7586    0.0034    0.0000 P   0  0  3  0  0  0           0  0  0
   -1.7621    0.7690    0.0000 O   0  0  0  0  0  0           0  0  0
   -1.7621   -0.7586    0.0000 O   0  0  0  0  0  0           0  0  0
   -0.7897   -2.2207    0.0000 O   0  0  0  0  0  0           0  0  0
   -0.7862   -1.4724    0.0000 C   0  0  3  0  0  0           0  0  0
   -1.0172   -0.7621    0.0000 C   0  0  3  0  0  0           0  0  0
   -0.0379   -1.4724    0.0000 C   0  0  0  0  0  0           0  0  0
   -0.4103   -0.3172    0.0000 O   0  0  0  0  0  0           0  0  0
   -1.0207   -0.0034    0.0000 C   0  0  0  0  0  0           0  0  0
    0.1966   -0.7621    0.0000 C   0  0  3  0  0  0           0  0  0
   -1.7552    0.0000    0.0000 O   0  0  0  0  0  0           0  0  0
    0.1897   -0.0103    0.0000 N   0  0  3  0  0  0           0  0  0
   -2.5172    0.0034    0.0000 P   0  0  3  0  0  0           0  0  0
    0.8103    0.3690    0.0000 C   0  0  0  0  0  0           0  0  0
   -0.4621    0.3621    0.0000 C   0  0  0  0  0  0           0  0  0
   -2.5207    0.7690    0.0000 O   0  0  0  0  0  0           0  0  0
   -2.5207   -0.7586    0.0000 O   0  0  0  0  0  0           0  0  0
    0.8276    1.1172    0.0000 N   0  0  0  0  0  0           0  0  0
    1.4862    0.0000    0.0000 O   0  0  0  0  0  0           0  0  0
   -0.4690    1.1103    0.0000 C   0  0  0  0  0  0           0  0  0
    0.1759    1.4897    0.0000 C   0  0  0  0  0  0           0  0  0
   -1.1207    1.4793    0.0000 C   0  0  0  0  0  0           0  0  0
    0.1724    2.2379    0.0000 O   0  0  0  0  0  0           0  0  0
  6 11  2  0     0  0
  7 12  1  0     0  0
  8 13  2  0     0  0
  9 14  1  0     0  0
 10 15  1  0     0  0
 12 16  2  0     0  0
 12 17  1  0     0  0
 14 18  1  0     0  0
 15 19  1  0     0  0
 33  2  1  0     0  0
  1 19  1  0     0  0
 21 24  1  0     0  0
 18 20  1  0     0  0
 20 21  1  0     0  0
 21 22  1  0     0  0
 21 23  2  0     0  0
  7 11  1  0     0  0
 13 16  1  0     0  0
 14 15  1  0     0  0
  3  4  1  0     0  0
  3  5  1  0     0  0
  3  6  1  0     0  0
  4  7  2  0     0  0
  4  8  1  0     0  0
  5  9  1  0     0  0
  5 10  1  0     0  0
 24 25  1  0     0  0
 25 26  1  0     0  0
 25 27  1  0     0  0
 26 28  1  0     0  0
 26 29  1  0     0  0
 27 30  1  0     0  0
 29 31  1  0     0  0
 30 32  1  0     0  0
 31 33  1  0     0  0
 32 34  1  0     0  0
 32 35  1  0     0  0
 33 36  1  0     0  0
 33 37  2  0     0  0
 34 38  1  0     0  0
 34 39  2  0     0  0
 35 40  2  0     0  0
 38 41  1  0     0  0
 40 42  1  0     0  0
 41 43  2  0     0  0
 28 30  1  0     0  0
 40 41  1  0     0  0
M  STY  4   1 SUP   2 SUP   3 SUP   4 SUP
M  SLB  4   1   1   2   2   3   3   4   4
M  SAL   1  1   2
M  SBL   1  1  10
M  SMT   1 \n5'
M  SBV   1  10   -0.0400    1.1200
M  SCL   1 LGRP
M  SAL   2  1   1
M  SBL   2  1  11
M  SMT   2 \n3'
M  SBV   2  11    0.0400   -1.1200
M  SCL   2 LGRP
M  SAL   3 15   3   4   5   6   7   8   9  10  11  12  13  14  15  16  17
M  SAL   3  6  18  19  20  21  22  23
M  SBL   3  2  11  12
M  SMT   3 A
M  SBV   3  11   -0.0400    1.1200
M  SBV   3  12    0.9700   -2.2200
M  SCL   3 DNA
M  SAP   3  2  19   1 Br  21  24 Al
M  SAL   4 15  24  25  26  27  28  29  30  31  32  33  34  35  36  37  38
M  SAL   4  5  39  40  41  42  43
M  SBL   4  2  10  12
M  SMT   4 T
M  SBV   4  12   -0.9700    2.2200
M  SBV   4  10    0.0400   -1.1200
M  SCL   4 DNA
M  SAP   4  2  24  21 Br  33   2 Al
M  END
>  <prID>
394

>  <IDDB>
97599

>  <pIC50_HIV_Integrase>
4.744727495

>  <Q>
-11.32037861

>  <Activity_Integrase>
Inactive_Integrase

NA
NA
NA
NA
$$$$

  Accelrys05311914342D 1   1.00000     0.00000     0

 41 44  0     0  0            999 V2000
    0.1828   -1.0897    0.0000 H   0  0  0  0  0  0           0  0  0
    0.4483   -0.7552    0.0000 C   0  0  3  0  0  0           0  0  0
    0.4414   -0.0034    0.0000 N   0  0  3  0  0  0           0  0  0
   -0.1586   -0.3103    0.0000 O   0  0  0  0  0  0           0  0  0
    0.2138   -1.4655    0.0000 C   0  0  0  0  0  0           0  0  0
    1.0621    0.3759    0.0000 C   0  0  0  0  0  0           0  0  0
   -0.2103    0.3690    0.0000 C   0  0  0  0  0  0           0  0  0
   -0.7655   -0.7552    0.0000 C   0  0  3  0  0  0           0  0  0
   -0.5345   -1.4655    0.0000 C   0  0  3  0  0  0           0  0  0
    1.0793    1.1276    0.0000 N   0  0  0  0  0  0           0  0  0
    1.7379    0.0069    0.0000 O   0  0  0  0  0  0           0  0  0
   -0.2172    1.1172    0.0000 C   0  0  0  0  0  0           0  0  0
   -0.7690    0.0034    0.0000 C   0  0  0  0  0  0           0  0  0
   -0.5379   -2.2138    0.0000 O   0  0  0  0  0  0           0  0  0
    0.4310    1.4966    0.0000 C   0  0  0  0  0  0           0  0  0
   -0.8690    1.4862    0.0000 C   0  0  0  0  0  0           0  0  0
   -1.5000    0.0069    0.0000 O   0  0  0  0  0  0           0  0  0
    0.4241    2.2448    0.0000 O   0  0  0  0  0  0           0  0  0
   -2.2621    0.0103    0.0000 P   0  0  3  0  0  0           0  0  0
   -2.2690    0.7759    0.0000 O   0  0  0  0  0  0           0  0  0
   -2.2690   -0.7517    0.0000 O   0  0  0  0  0  0           0  0  0
   -2.2276   -1.1103    0.0000 O   0  0  0  0  0  0           0  0  0
   -1.5069    0.0103    0.0000 P   0  0  3  0  0  0           0  0  0
   -0.7414    0.0069    0.0000 O   0  0  0  0  0  0           0  0  0
   -1.5103    0.7759    0.0000 O   0  0  0  0  0  0           0  0  0
   -1.5103   -0.7517    0.0000 O   0  0  0  0  0  0           0  0  0
   -0.0103    0.0034    0.0000 C   0  0  0  0  0  0           0  0  0
   -0.0069   -0.7552    0.0000 C   0  0  3  0  0  0           0  0  0
    0.6000   -0.3103    0.0000 O   0  0  0  0  0  0           0  0  0
    0.2241   -1.4655    0.0000 C   0  0  3  0  0  0           0  0  0
    1.2069   -0.7552    0.0000 C   0  0  3  0  0  0           0  0  0
    0.9724   -1.4655    0.0000 C   0  0  0  0  0  0           0  0  0
    0.2207   -2.2138    0.0000 O   0  0  0  0  0  0           0  0  0
    1.2000   -0.0034    0.0000 N   0  0  3  0  0  0           0  0  0
    1.8207    0.3759    0.0000 C   0  0  0  0  0  0           0  0  0
    0.5483    0.3690    0.0000 C   0  0  0  0  0  0           0  0  0
    1.8379    1.1276    0.0000 N   0  0  0  0  0  0           0  0  0
    2.4966    0.0069    0.0000 O   0  0  0  0  0  0           0  0  0
    0.5414    1.1172    0.0000 C   0  0  0  0  0  0           0  0  0
    1.1862    1.4966    0.0000 C   0  0  0  0  0  0           0  0  0
    1.1828    2.2448    0.0000 N   0  0  0  0  0  0           0  0  0
  7 12  2  0     0  0
  8 13  1  0     0  0
  9 14  1  0     0  0
 10 15  1  0     0  0
 12 16  1  0     0  0
 13 17  1  0     0  0
 14 23  1  0     0  0
 19 22  1  0     0  0
  1 33  1  0     0  0
 15 18  2  0     0  0
 17 19  1  0     0  0
 19 20  1  0     0  0
 19 21  2  0     0  0
  8  9  1  0     0  0
 12 15  1  0     0  0
  2  3  1  0     0  0
  2  4  1  0     0  0
  2  5  1  0     0  0
  3  6  1  0     0  0
  3  7  1  0     0  0
  4  8  1  0     0  0
  5  9  1  0     0  0
  6 10  1  0     0  0
  6 11  2  0     0  0
 23 24  1  0     0  0
 23 25  1  0     0  0
 23 26  2  0     0  0
 24 27  1  0     0  0
 27 28  1  0     0  0
 28 29  1  0     0  0
 28 30  1  0     0  0
 29 31  1  0     0  0
 30 32  1  0     0  0
 30 33  1  0     0  0
 31 34  1  0     0  0
 34 35  1  0     0  0
 34 36  1  0     0  0
 35 37  1  0     0  0
 35 38  2  0     0  0
 36 39  2  0     0  0
 37 40  2  0     0  0
 40 41  1  0     0  0
 31 32  1  0     0  0
 39 40  1  0     0  0
M  STY  4   1 SUP   2 SUP   3 SUP   4 SUP
M  SLB  4   1   1   2   2   3   3   4   4
M  SAL   1  1   1
M  SBL   1  1   9
M  SMT   1 \n3'
M  SBV   1   9    0.0400   -1.1300
M  SCL   1 LGRP
M  SAL   2 15   2   3   4   5   6   7   8   9  10  11  12  13  14  15  16
M  SAL   2  5  17  18  19  20  21
M  SBL   2  2   7   8
M  SMT   2 T
M  SBV   2   7   -0.9600    2.2300
M  SBV   2   8    0.0400   -1.1200
M  SCL   2 DNA
M  SAP   2  2  14  23 Br  19  22 Al
M  SAL   3  1  22
M  SBL   3  1   8
M  SMT   3 \n5'
M  SBV   3   8   -0.0400    1.1200
M  SCL   3 LGRP
M  SAL   4 15  23  24  25  26  27  28  29  30  31  32  33  34  35  36  37
M  SAL   4  4  38  39  40  41
M  SBL   4  2   7   9
M  SMT   4 C
M  SBV   4   7    0.9600   -2.2300
M  SBV   4   9   -0.0400    1.1300
M  SCL   4 DNA
M  SAP   4  2  23  14 Al  33   1 Br
M  END
>  <prID>
395

>  <IDDB>
97600

>  <pIC50_HIV_Integrase>
4.431798276

>  <Q>
-11.52490586

>  <Activity_Integrase>
Inactive_Integrase

NA
NA
NA
NA
$$$$

  Accelrys05311914342D 1   1.00000     0.00000     0

 44 48  0     0  0            999 V2000
    1.5862    0.1931    0.0000 C   0  0  0  0  0  0           0  0  0
    0.8621   -0.0034    0.0000 N   0  0  3  0  0  0           0  0  0
    1.6207    0.9345    0.0000 C   0  0  0  0  0  0           0  0  0
    2.2069   -0.2103    0.0000 N   0  0  0  0  0  0           0  0  0
    0.8690   -0.7552    0.0000 C   0  0  3  0  0  0           0  0  0
    0.4552    0.6172    0.0000 C   0  0  0  0  0  0           0  0  0
    0.9241    1.2034    0.0000 N   0  0  0  0  0  0           0  0  0
    2.2828    1.2724    0.0000 C   0  0  0  0  0  0           0  0  0
    2.8690    0.1276    0.0000 C   0  0  0  0  0  0           0  0  0
    0.2621   -0.3103    0.0000 O   0  0  0  0  0  0           0  0  0
    0.6379   -1.4655    0.0000 C   0  0  0  0  0  0           0  0  0
    2.9069    0.8690    0.0000 N   0  0  0  0  0  0           0  0  0
    2.3207    2.0172    0.0000 O   0  0  0  0  0  0           0  0  0
    3.4931   -0.2759    0.0000 N   0  0  0  0  0  0           0  0  0
   -0.3414   -0.7552    0.0000 C   0  0  3  0  0  0           0  0  0
   -0.1103   -1.4655    0.0000 C   0  0  3  0  0  0           0  0  0
   -0.3448    0.0000    0.0000 C   0  0  0  0  0  0           0  0  0
   -0.1138   -2.2138    0.0000 O   0  0  0  0  0  0           0  0  0
   -1.0793    0.0069    0.0000 O   0  0  0  0  0  0           0  0  0
   -1.8414    0.0103    0.0000 P   0  0  3  0  0  0           0  0  0
   -1.8448    0.7759    0.0000 O   0  0  0  0  0  0           0  0  0
   -1.8448   -0.7517    0.0000 O   0  0  0  0  0  0           0  0  0
   -0.8724   -2.2138    0.0000 O   0  0  0  0  0  0           0  0  0
   -0.8690   -1.4655    0.0000 C   0  0  3  0  0  0           0  0  0
   -1.1000   -0.7552    0.0000 C   0  0  3  0  0  0           0  0  0
   -0.1207   -1.4655    0.0000 C   0  0  0  0  0  0           0  0  0
   -0.4931   -0.3103    0.0000 O   0  0  0  0  0  0           0  0  0
   -1.1034    0.0000    0.0000 C   0  0  0  0  0  0           0  0  0
    0.1138   -0.7552    0.0000 C   0  0  3  0  0  0           0  0  0
   -1.8379    0.0069    0.0000 O   0  0  0  0  0  0           0  0  0
    0.1069   -0.0034    0.0000 N   0  0  3  0  0  0           0  0  0
   -2.6000    0.0103    0.0000 P   0  0  3  0  0  0           0  0  0
    0.7276    0.3759    0.0000 C   0  0  0  0  0  0           0  0  0
   -0.5448    0.3655    0.0000 C   0  0  0  0  0  0           0  0  0
   -2.6034    0.7759    0.0000 O   0  0  0  0  0  0           0  0  0
   -2.6034   -0.7517    0.0000 O   0  0  0  0  0  0           0  0  0
    0.7448    1.1241    0.0000 N   0  0  0  0  0  0           0  0  0
    1.4034    0.0069    0.0000 O   0  0  0  0  0  0           0  0  0
   -0.5517    1.1172    0.0000 C   0  0  0  0  0  0           0  0  0
    0.0931    1.4966    0.0000 C   0  0  0  0  0  0           0  0  0
   -1.2034    1.4862    0.0000 C   0  0  0  0  0  0           0  0  0
    0.0897    2.2448    0.0000 O   0  0  0  0  0  0           0  0  0
   -0.1517   -1.0897    0.0000 H   0  0  0  0  0  0           0  0  0
   -2.5621   -1.1103    0.0000 O   0  0  0  0  0  0           0  0  0
  8 12  1  0     0  0
  8 13  2  0     0  0
  9 14  1  0     0  0
 10 15  1  0     0  0
 11 16  1  0     0  0
 15 17  1  0     0  0
 20 23  1  0     0  0
 32 44  1  0     0  0
 43 18  1  0     0  0
 16 18  1  0     0  0
 17 19  1  0     0  0
 19 20  1  0     0  0
 20 21  1  0     0  0
 20 22  2  0     0  0
  6  7  2  0     0  0
  9 12  1  0     0  0
 15 16  1  0     0  0
  1  2  1  0     0  0
  1  3  2  0     0  0
  1  4  1  0     0  0
  2  5  1  0     0  0
  2  6  1  0     0  0
  3  7  1  0     0  0
  3  8  1  0     0  0
  4  9  2  0     0  0
 23 24  1  0     0  0
 24 25  1  0     0  0
 24 26  1  0     0  0
 25 27  1  0     0  0
 25 28  1  0     0  0
 26 29  1  0     0  0
 28 30  1  0     0  0
 29 31  1  0     0  0
 30 32  1  0     0  0
 31 33  1  0     0  0
 31 34  1  0     0  0
 32 35  1  0     0  0
 32 36  2  0     0  0
 33 37  1  0     0  0
 33 38  2  0     0  0
 34 39  2  0     0  0
 37 40  1  0     0  0
 39 41  1  0     0  0
 40 42  2  0     0  0
 27 29  1  0     0  0
 39 40  1  0     0  0
  5 10  1  0     0  0
  5 11  1  0     0  0
M  STY  4   1 SUP   2 SUP   3 SUP   4 SUP
M  SLB  4   1   1   2   2   3   3   4   4
M  SAL   1 15  23  24  25  26  27  28  29  30  31  32  33  34  35  36  37
M  SAL   1  5  38  39  40  41  42
M  SBL   1  2   7   8
M  SMT   1 T
M  SBV   1   7   -0.9700    2.2300
M  SBV   1   8    0.0300   -1.1200
M  SCL   1 DNA
M  SAP   1  2  23  20 Br  32  44 Al
M  SAL   2 15   1   2   3   4   5   6   7   8   9  10  11  12  13  14  15
M  SAL   2  7  16  17  18  19  20  21  22
M  SBL   2  2   7   9
M  SMT   2 G
M  SBV   2   9   -0.0400    1.1300
M  SBV   2   7    0.9700   -2.2300
M  SCL   2 DNA
M  SAP   2  2  18  43 Br  20  23 Al
M  SAL   3  1  43
M  SBL   3  1   9
M  SMT   3 \n3'
M  SBV   3   9    0.0400   -1.1300
M  SCL   3 LGRP
M  SAL   4  1  44
M  SBL   4  1   8
M  SMT   4 \n5'
M  SBV   4   8   -0.0300    1.1200
M  SCL   4 LGRP
M  END
>  <prID>
396

>  <IDDB>
97601

>  <pIC50_HIV_Integrase>
4.508638306

>  <Q>
-12.41766126

>  <Activity_Integrase>
Inactive_Integrase

NA
NA
NA
NA
$$$$

  Accelrys05311914342D 1   1.00000     0.00000     0

 42 45  0     0  0            999 V2000
    0.1862   -1.1517    0.0000 H   0  0  0  0  0  0           0  0  0
   -1.5034   -0.0241    0.0000 P   0  0  3  0  0  0           0  0  0
   -0.7414   -0.0310    0.0000 O   0  0  0  0  0  0           0  0  0
   -1.5069    0.7414    0.0000 O   0  0  0  0  0  0           0  0  0
   -1.5069   -0.7897    0.0000 O   0  0  0  0  0  0           0  0  0
   -0.0069   -0.0345    0.0000 C   0  0  0  0  0  0           0  0  0
   -0.0069   -0.7931    0.0000 C   0  0  3  0  0  0           0  0  0
    0.6000   -0.3483    0.0000 O   0  0  0  0  0  0           0  0  0
    0.2276   -1.5000    0.0000 C   0  0  3  0  0  0           0  0  0
    1.2069   -0.7931    0.0000 C   0  0  3  0  0  0           0  0  0
    0.9759   -1.5000    0.0000 C   0  0  0  0  0  0           0  0  0
    0.2207   -2.2517    0.0000 O   0  0  0  0  0  0           0  0  0
    1.2000   -0.0379    0.0000 N   0  0  3  0  0  0           0  0  0
    1.8207    0.3414    0.0000 C   0  0  0  0  0  0           0  0  0
    0.5517    0.3310    0.0000 C   0  0  0  0  0  0           0  0  0
    1.8414    1.0897    0.0000 N   0  0  0  0  0  0           0  0  0
    2.5000   -0.0310    0.0000 O   0  0  0  0  0  0           0  0  0
    0.5448    1.0793    0.0000 C   0  0  0  0  0  0           0  0  0
    1.1897    1.4586    0.0000 C   0  0  0  0  0  0           0  0  0
   -0.1069    1.4517    0.0000 C   0  0  0  0  0  0           0  0  0
    1.1862    2.2103    0.0000 O   0  0  0  0  0  0           0  0  0
    0.4483   -0.7931    0.0000 C   0  0  3  0  0  0           0  0  0
    0.4448   -0.0379    0.0000 N   0  0  3  0  0  0           0  0  0
   -0.1552   -0.3483    0.0000 O   0  0  0  0  0  0           0  0  0
    0.2172   -1.5000    0.0000 C   0  0  0  0  0  0           0  0  0
    1.0655    0.3414    0.0000 C   0  0  0  0  0  0           0  0  0
   -0.2069    0.3310    0.0000 C   0  0  0  0  0  0           0  0  0
   -0.7621   -0.7931    0.0000 C   0  0  3  0  0  0           0  0  0
   -0.5310   -1.5000    0.0000 C   0  0  3  0  0  0           0  0  0
    1.0828    1.0897    0.0000 N   0  0  0  0  0  0           0  0  0
    1.7414   -0.0310    0.0000 O   0  0  0  0  0  0           0  0  0
   -0.2138    1.0793    0.0000 C   0  0  0  0  0  0           0  0  0
   -0.7655   -0.0345    0.0000 C   0  0  0  0  0  0           0  0  0
   -0.5345   -2.2517    0.0000 O   0  0  0  0  0  0           0  0  0
    0.4310    1.4586    0.0000 C   0  0  0  0  0  0           0  0  0
   -0.8655    1.4517    0.0000 C   0  0  0  0  0  0           0  0  0
   -1.5000   -0.0310    0.0000 O   0  0  0  0  0  0           0  0  0
    0.4276    2.2103    0.0000 O   0  0  0  0  0  0           0  0  0
   -2.2621   -0.0241    0.0000 P   0  0  3  0  0  0           0  0  0
   -2.2655    0.7414    0.0000 O   0  0  0  0  0  0           0  0  0
   -2.2655   -0.7897    0.0000 O   0  0  0  0  0  0           0  0  0
   -2.2241   -1.1483    0.0000 O   0  0  0  0  0  0           0  0  0
 16 19  1  0     0  0
 18 20  1  0     0  0
 19 21  2  0     0  0
 10 11  1  0     0  0
 18 19  1  0     0  0
 34  2  1  0     0  0
 39 42  1  0     0  0
  1 12  1  0     0  0
  2  3  1  0     0  0
  2  4  1  0     0  0
  2  5  2  0     0  0
  3  6  1  0     0  0
  6  7  1  0     0  0
  7  8  1  0     0  0
  7  9  1  0     0  0
  8 10  1  0     0  0
  9 11  1  0     0  0
  9 12  1  0     0  0
 10 13  1  0     0  0
 13 14  1  0     0  0
 13 15  1  0     0  0
 14 16  1  0     0  0
 14 17  2  0     0  0
 37 39  1  0     0  0
 39 40  1  0     0  0
 39 41  2  0     0  0
 28 29  1  0     0  0
 32 35  1  0     0  0
 22 23  1  0     0  0
 22 24  1  0     0  0
 22 25  1  0     0  0
 23 26  1  0     0  0
 23 27  1  0     0  0
 24 28  1  0     0  0
 25 29  1  0     0  0
 26 30  1  0     0  0
 26 31  2  0     0  0
 27 32  2  0     0  0
 28 33  1  0     0  0
 29 34  1  0     0  0
 30 35  1  0     0  0
 32 36  1  0     0  0
 33 37  1  0     0  0
 35 38  2  0     0  0
 15 18  2  0     0  0
M  STY  4   1 SUP   2 SUP   3 SUP   4 SUP
M  SLB  4   1   1   2   2   3   3   4   4
M  SAL   1  1   1
M  SBL   1  1   8
M  SMT   1 \n3'
M  SBV   1   8    0.0300   -1.1000
M  SCL   1 LGRP
M  SAL   2 15  22  23  24  25  26  27  28  29  30  31  32  33  34  35  36
M  SAL   2  5  37  38  39  40  41
M  SBL   2  2   6   7
M  SMT   2 T
M  SBV   2   6   -0.9700    2.2300
M  SBV   2   7    0.0400   -1.1200
M  SCL   2 DNA
M  SAP   2  2  34   2 Br  39  42 Al
M  SAL   3 15   2   3   4   5   6   7   8   9  10  11  12  13  14  15  16
M  SAL   3  5  17  18  19  20  21
M  SBL   3  2   6   8
M  SMT   3 T
M  SBV   3   6    0.9700   -2.2300
M  SBV   3   8   -0.0300    1.1000
M  SCL   3 DNA
M  SAP   3  2   2  34 Al  12   1 Br
M  SAL   4  1  42
M  SBL   4  1   7
M  SMT   4 \n5'
M  SBV   4   7   -0.0400    1.1200
M  SCL   4 LGRP
M  END
>  <prID>
397

>  <IDDB>
97602

>  <pIC50_HIV_Integrase>
4.27572413

>  <Q>
-10.88079271

>  <Activity_Integrase>
Inactive_Integrase

NA
NA
NA
NA
$$$$

  Accelrys05311914342D 1   1.00000     0.00000     0

 60 67  0     0  0            999 V2000
   -0.5724   -2.5069    0.0000 O   0  0  0  0  0  0           0  0  0
   -0.5690   -1.7586    0.0000 C   0  0  3  0  0  0           0  0  0
   -0.8000   -1.0483    0.0000 C   0  0  3  0  0  0           0  0  0
    0.1793   -1.7586    0.0000 C   0  0  0  0  0  0           0  0  0
   -0.1931   -0.6034    0.0000 O   0  0  0  0  0  0           0  0  0
   -0.7759   -0.2897    0.0000 C   0  0  0  0  0  0           0  0  0
    0.4138   -1.0483    0.0000 C   0  0  3  0  0  0           0  0  0
   -1.5345   -0.2862    0.0000 O   0  0  0  0  0  0           0  0  0
    0.4069   -0.2931    0.0000 N   0  0  3  0  0  0           0  0  0
   -2.3000   -0.2828    0.0000 P   0  0  3  0  0  0           0  0  0
    1.1276   -0.1000    0.0000 C   0  0  0  0  0  0           0  0  0
   -0.0034    0.3276    0.0000 C   0  0  0  0  0  0           0  0  0
   -2.3034    0.4862    0.0000 O   0  0  0  0  0  0           0  0  0
   -2.3034   -1.0448    0.0000 O   0  0  0  0  0  0           0  0  0
    1.1655    0.6448    0.0000 C   0  0  0  0  0  0           0  0  0
    1.7517   -0.5034    0.0000 N   0  0  0  0  0  0           0  0  0
    0.4655    0.9138    0.0000 N   0  0  0  0  0  0           0  0  0
    1.8241    0.9828    0.0000 C   0  0  0  0  0  0           0  0  0
    2.4103   -0.1655    0.0000 C   0  0  0  0  0  0           0  0  0
    2.4483    0.5793    0.0000 N   0  0  0  0  0  0           0  0  0
    1.8621    1.7241    0.0000 N   0  0  0  0  0  0           0  0  0
    0.1241   -1.3828    0.0000 H   0  0  0  0  0  0           0  0  0
    1.8586   -0.1000    0.0000 C   0  0  0  0  0  0           0  0  0
    1.1379   -0.2931    0.0000 N   0  0  3  0  0  0           0  0  0
    1.8966    0.6448    0.0000 C   0  0  0  0  0  0           0  0  0
    2.4828   -0.5034    0.0000 N   0  0  0  0  0  0           0  0  0
    1.1448   -1.0483    0.0000 C   0  0  3  0  0  0           0  0  0
    0.7310    0.3276    0.0000 C   0  0  0  0  0  0           0  0  0
    1.2000    0.9138    0.0000 N   0  0  0  0  0  0           0  0  0
    2.5586    0.9828    0.0000 C   0  0  0  0  0  0           0  0  0
    3.1448   -0.1655    0.0000 C   0  0  0  0  0  0           0  0  0
    0.5379   -0.6034    0.0000 O   0  0  0  0  0  0           0  0  0
    0.9138   -1.7586    0.0000 C   0  0  0  0  0  0           0  0  0
    3.1828    0.5793    0.0000 N   0  0  0  0  0  0           0  0  0
    2.5966    1.7241    0.0000 O   0  0  0  0  0  0           0  0  0
    3.7690   -0.5690    0.0000 N   0  0  0  0  0  0           0  0  0
   -0.0690   -1.0483    0.0000 C   0  0  3  0  0  0           0  0  0
    0.1655   -1.7586    0.0000 C   0  0  3  0  0  0           0  0  0
   -0.0690   -0.2897    0.0000 C   0  0  0  0  0  0           0  0  0
    0.1586   -2.5069    0.0000 O   0  0  0  0  0  0           0  0  0
   -0.8034   -0.2862    0.0000 O   0  0  0  0  0  0           0  0  0
   -1.5655   -0.2828    0.0000 P   0  0  3  0  0  0           0  0  0
   -1.5690    0.4862    0.0000 O   0  0  0  0  0  0           0  0  0
   -1.5690   -1.0448    0.0000 O   0  0  0  0  0  0           0  0  0
   -2.1448   -1.4069    0.0000 O   0  0  0  0  0  0           0  0  0
   -2.1414   -0.6586    0.0000 C   0  0  3  0  0  0           0  0  0
   -2.3724    0.0517    0.0000 C   0  0  3  0  0  0           0  0  0
   -1.3897   -0.6586    0.0000 C   0  0  0  0  0  0           0  0  0
   -1.7655    0.4966    0.0000 O   0  0  0  0  0  0           0  0  0
   -2.3724    0.8103    0.0000 C   0  0  0  0  0  0           0  0  0
   -1.1586    0.0517    0.0000 C   0  0  3  0  0  0           0  0  0
   -3.1069    0.8138    0.0000 O   0  0  0  0  0  0           0  0  0
   -1.1655    0.8069    0.0000 N   0  0  3  0  0  0           0  0  0
   -0.5448    1.1862    0.0000 C   0  0  0  0  0  0           0  0  0
   -1.8172    1.1759    0.0000 C   0  0  0  0  0  0           0  0  0
   -0.5241    1.9345    0.0000 N   0  0  0  0  0  0           0  0  0
    0.1310    0.8138    0.0000 O   0  0  0  0  0  0           0  0  0
   -1.8207    1.9241    0.0000 C   0  0  0  0  0  0           0  0  0
   -1.1759    2.3034    0.0000 C   0  0  0  0  0  0           0  0  0
   -1.1828    3.0517    0.0000 N   0  0  0  0  0  0           0  0  0
  6  8  1  0     0  0
  7  9  1  0     0  0
  8 10  1  0     0  0
  9 11  1  0     0  0
  9 12  1  0     0  0
 10 13  1  0     0  0
 10 14  2  0     0  0
 11 15  2  0     0  0
 11 16  1  0     0  0
 12 17  2  0     0  0
 15 18  1  0     0  0
 16 19  2  0     0  0
 18 20  2  0     0  0
 23 26  1  0     0  0
 24 27  1  0     0  0
 24 28  1  0     0  0
 25 29  1  0     0  0
 25 30  1  0     0  0
 26 31  2  0     0  0
 27 32  1  0     0  0
 27 33  1  0     0  0
 30 34  1  0     0  0
 30 35  2  0     0  0
 31 36  1  0     0  0
 32 37  1  0     0  0
 33 38  1  0     0  0
 37 39  1  0     0  0
 38 40  1  0     0  0
 39 41  1  0     0  0
 41 42  1  0     0  0
 42 43  1  0     0  0
 42 44  2  0     0  0
 28 29  2  0     0  0
 31 34  1  0     0  0
 37 38  1  0     0  0
 23 24  1  0     0  0
 23 25  2  0     0  0
 18 21  1  0     0  0
  5  7  1  0     0  0
 15 17  1  0     0  0
 19 20  1  0     0  0
 22 40  1  0     0  0
 42  1  1  0     0  0
 10 45  1  0     0  0
  1  2  1  0     0  0
  2  3  1  0     0  0
  2  4  1  0     0  0
  3  5  1  0     0  0
  3  6  1  0     0  0
  4  7  1  0     0  0
 45 46  1  0     0  0
 46 47  1  0     0  0
 46 48  1  0     0  0
 47 49  1  0     0  0
 47 50  1  0     0  0
 48 51  1  0     0  0
 50 52  1  0     0  0
 51 53  1  0     0  0
 53 54  1  0     0  0
 53 55  1  0     0  0
 54 56  1  0     0  0
 54 57  2  0     0  0
 55 58  2  0     0  0
 56 59  2  0     0  0
 59 60  1  0     0  0
 49 51  1  0     0  0
 58 59  1  0     0  0
M  STY  4   1 SUP   2 SUP   3 SUP   4 SUP
M  SLB  4   1   1   2   2   3   3   4   4
M  SAL   1  1  22
M  SBL   1  1  42
M  SMT   1 \n3'
M  SBV   1  42    0.0300   -1.1300
M  SCL   1 LGRP
M  SAL   2 15   1   2   3   4   5   6   7   8   9  10  11  12  13  14  15
M  SAL   2  6  16  17  18  19  20  21
M  SBL   2  2  43  44
M  SMT   2 A
M  SBV   2  43   -0.9900    2.2300
M  SBV   2  44    0.1500   -1.1300
M  SCL   2 DNA
M  SAP   2  2   1  42 Br  10  45 Al
M  SAL   3 15  23  24  25  26  27  28  29  30  31  32  33  34  35  36  37
M  SAL   3  7  38  39  40  41  42  43  44
M  SBL   3  2  42  43
M  SMT   3 G
M  SBV   3  42   -0.0300    1.1300
M  SBV   3  43    0.9900   -2.2300
M  SCL   3 DNA
M  SAP   3  2  40  22 Br  42   1 Al
M  SAL   4 15  45  46  47  48  49  50  51  52  53  54  55  56  57  58  59
M  SAL   4  1  60
M  SBL   4  1  44
M  SMT   4 C
M  SBV   4  44   -0.1500    1.1300
M  SCL   4 DNA
M  SAP   4  1  45  10 Br
M  END
>  <prID>
398

>  <IDDB>
97603

>  <pIC50_HIV_Integrase>
4.27572413

>  <Q>
-15.96668819

>  <Activity_Integrase>
Inactive_Integrase

NA
NA
NA
NA
$$$$

  Accelrys05311914342D 1   1.00000     0.00000     0

 58 64  0     0  0            999 V2000
   -2.0759   -1.5828    0.0000 O   0  0  0  0  0  0           0  0  0
   -2.0724   -0.7517    0.0000 C   0  0  3  0  0  0           0  0  0
   -2.3276    0.0310    0.0000 C   0  0  3  0  0  0           0  0  0
   -1.2414   -0.7517    0.0000 C   0  0  0  0  0  0           0  0  0
   -1.6552    0.5276    0.0000 O   0  0  0  0  0  0           0  0  0
   -2.3310    0.8724    0.0000 C   0  0  0  0  0  0           0  0  0
   -0.9862    0.0310    0.0000 C   0  0  3  0  0  0           0  0  0
   -3.1379    0.8759    0.0000 O   0  0  0  0  0  0           0  0  0
   -0.9931    0.8655    0.0000 N   0  0  3  0  0  0           0  0  0
   -0.3034    1.2862    0.0000 C   0  0  0  0  0  0           0  0  0
   -1.7103    1.2759    0.0000 C   0  0  0  0  0  0           0  0  0
   -0.2862    2.1138    0.0000 N   0  0  0  0  0  0           0  0  0
    0.4448    0.8793    0.0000 O   0  0  0  0  0  0           0  0  0
   -1.7207    2.1034    0.0000 C   0  0  0  0  0  0           0  0  0
   -1.0034    2.5241    0.0000 C   0  0  0  0  0  0           0  0  0
   -1.0069    3.3552    0.0000 N   0  0  0  0  0  0           0  0  0
    0.3862   -1.5724    0.0000 H   0  0  0  0  0  0           0  0  0
   -0.3793   -2.8241    0.0000 O   0  0  0  0  0  0           0  0  0
   -0.3759   -1.9897    0.0000 C   0  0  3  0  0  0           0  0  0
   -0.6310   -1.2069    0.0000 C   0  0  3  0  0  0           0  0  0
    0.4552   -1.9897    0.0000 C   0  0  0  0  0  0           0  0  0
    0.0379   -0.7138    0.0000 O   0  0  0  0  0  0           0  0  0
   -0.6345   -0.3690    0.0000 C   0  0  0  0  0  0           0  0  0
    0.7103   -1.2069    0.0000 C   0  0  3  0  0  0           0  0  0
   -1.4448   -0.3655    0.0000 O   0  0  0  0  0  0           0  0  0
    0.7034   -0.3724    0.0000 N   0  0  3  0  0  0           0  0  0
   -2.2862   -0.3586    0.0000 P   0  0  3  0  0  0           0  0  0
    1.3931    0.0448    0.0000 C   0  0  0  0  0  0           0  0  0
   -0.0172    0.0345    0.0000 C   0  0  0  0  0  0           0  0  0
   -2.2931    0.4897    0.0000 O   0  0  0  0  0  0           0  0  0
   -2.2931   -1.2034    0.0000 O   0  0  0  0  0  0           0  0  0
    1.4103    0.8759    0.0000 N   0  0  0  0  0  0           0  0  0
    2.1379   -0.3655    0.0000 O   0  0  0  0  0  0           0  0  0
   -0.0241    0.8621    0.0000 C   0  0  0  0  0  0           0  0  0
    0.6897    1.2828    0.0000 C   0  0  0  0  0  0           0  0  0
   -0.7483    1.2759    0.0000 C   0  0  0  0  0  0           0  0  0
    0.6828    2.1138    0.0000 O   0  0  0  0  0  0           0  0  0
    1.5138   -0.3724    0.0000 N   0  0  3  0  0  0           0  0  0
    2.3069   -0.1552    0.0000 C   0  0  0  0  0  0           0  0  0
    1.5207   -1.2069    0.0000 C   0  0  3  0  0  0           0  0  0
    1.0621    0.3138    0.0000 C   0  0  0  0  0  0           0  0  0
    2.3483    0.6655    0.0000 C   0  0  0  0  0  0           0  0  0
    3.0000   -0.6069    0.0000 N   0  0  0  0  0  0           0  0  0
    0.8483   -0.7138    0.0000 O   0  0  0  0  0  0           0  0  0
    1.2621   -1.9931    0.0000 C   0  0  0  0  0  0           0  0  0
    1.5759    0.9586    0.0000 N   0  0  0  0  0  0           0  0  0
    3.0828    1.0379    0.0000 C   0  0  0  0  0  0           0  0  0
    3.7310   -0.2310    0.0000 C   0  0  0  0  0  0           0  0  0
    0.1759   -1.2069    0.0000 C   0  0  3  0  0  0           0  0  0
    0.4345   -1.9931    0.0000 C   0  0  3  0  0  0           0  0  0
    3.7724    0.5931    0.0000 N   0  0  0  0  0  0           0  0  0
    3.1241    1.8586    0.0000 N   0  0  0  0  0  0           0  0  0
    0.2034   -0.3690    0.0000 C   0  0  0  0  0  0           0  0  0
    0.4276   -2.8241    0.0000 O   0  0  0  0  0  0           0  0  0
   -0.6379   -0.3655    0.0000 O   0  0  0  0  0  0           0  0  0
   -1.4793   -0.3586    0.0000 P   0  0  3  0  0  0           0  0  0
   -1.4828    0.4897    0.0000 O   0  0  0  0  0  0           0  0  0
   -1.4828   -1.2034    0.0000 O   0  0  0  0  0  0           0  0  0
 10 13  2  0     0  0
 11 14  2  0     0  0
 18 19  1  0     0  0
 19 20  1  0     0  0
 19 21  1  0     0  0
 20 22  1  0     0  0
 20 23  1  0     0  0
 21 24  1  0     0  0
 23 25  1  0     0  0
 24 26  1  0     0  0
 25 27  1  0     0  0
 26 28  1  0     0  0
 26 29  1  0     0  0
 27 30  1  0     0  0
 27 31  2  0     0  0
 28 32  1  0     0  0
 28 33  2  0     0  0
 29 34  2  0     0  0
 32 35  1  0     0  0
 34 36  1  0     0  0
 35 37  2  0     0  0
 22 24  1  0     0  0
 34 35  1  0     0  0
 27  1  1  0     0  0
 17 54  1  0     0  0
 56 18  1  0     0  0
 12 15  2  0     0  0
 15 16  1  0     0  0
  5  7  1  0     0  0
 14 15  1  0     0  0
  1  2  1  0     0  0
  2  3  1  0     0  0
  2  4  1  0     0  0
  3  5  1  0     0  0
  3  6  1  0     0  0
  4  7  1  0     0  0
  6  8  1  0     0  0
  7  9  1  0     0  0
  9 10  1  0     0  0
  9 11  1  0     0  0
 10 12  1  0     0  0
 38 39  1  0     0  0
 38 40  1  0     0  0
 38 41  1  0     0  0
 39 42  2  0     0  0
 39 43  1  0     0  0
 40 44  1  0     0  0
 40 45  1  0     0  0
 41 46  2  0     0  0
 42 47  1  0     0  0
 43 48  2  0     0  0
 44 49  1  0     0  0
 45 50  1  0     0  0
 47 51  2  0     0  0
 47 52  1  0     0  0
 49 53  1  0     0  0
 50 54  1  0     0  0
 53 55  1  0     0  0
 55 56  1  0     0  0
 56 57  1  0     0  0
 56 58  2  0     0  0
 42 46  1  0     0  0
 48 51  1  0     0  0
 49 50  1  0     0  0
M  STY  4   1 SUP   2 SUP   3 SUP   4 SUP
M  SLB  4   1   1   2   2   3   3   4   4
M  SAL   1 15   1   2   3   4   5   6   7   8   9  10  11  12  13  14  15
M  SAL   1  1  16
M  SBL   1  1  24
M  SMT   1 C
M  SBV   1  24   -0.2100    1.2200
M  SCL   1 DNA
M  SAP   1  1   1  27 Br
M  SAL   2  1  17
M  SBL   2  1  25
M  SMT   2 \n3'
M  SBV   2  25    0.0400   -1.2500
M  SCL   2 LGRP
M  SAL   3 15  18  19  20  21  22  23  24  25  26  27  28  29  30  31  32
M  SAL   3  5  33  34  35  36  37
M  SBL   3  2  24  26
M  SMT   3 T
M  SBV   3  26   -1.1000    2.4700
M  SBV   3  24    0.2100   -1.2200
M  SCL   3 DNA
M  SAP   3  2  18  56 Br  27   1 Al
M  SAL   4 15  38  39  40  41  42  43  44  45  46  47  48  49  50  51  52
M  SAL   4  6  53  54  55  56  57  58
M  SBL   4  2  25  26
M  SMT   4 A
M  SBV   4  25   -0.0400    1.2500
M  SBV   4  26    1.1000   -2.4700
M  SCL   4 DNA
M  SAP   4  2  54  17 Br  56  18 Al
M  END
>  <prID>
399

>  <IDDB>
97604

>  <pIC50_HIV_Integrase>
4.602059991

>  <Q>
-14.42982002

>  <Activity_Integrase>
Inactive_Integrase

NA
NA
NA
NA
$$$$

  Accelrys05311914342D 1   1.00000     0.00000     0

 62 68  0     0  0            999 V2000
   -2.8172   -1.0966    0.0000 O   0  0  0  0  0  0           0  0  0
   -0.3724   -2.2172    0.0000 O   0  0  0  0  0  0           0  0  0
   -0.3655   -1.4655    0.0000 C   0  0  3  0  0  0           0  0  0
   -0.6000   -0.7586    0.0000 C   0  0  3  0  0  0           0  0  0
    0.3828   -1.4655    0.0000 C   0  0  0  0  0  0           0  0  0
    0.0069   -0.3138    0.0000 O   0  0  0  0  0  0           0  0  0
   -0.6000    0.0000    0.0000 C   0  0  0  0  0  0           0  0  0
    0.6138   -0.7586    0.0000 C   0  0  3  0  0  0           0  0  0
   -1.3345    0.0034    0.0000 O   0  0  0  0  0  0           0  0  0
    0.6069   -0.0034    0.0000 N   0  0  3  0  0  0           0  0  0
   -2.0966    0.0069    0.0000 P   0  0  3  0  0  0           0  0  0
    1.2276    0.3759    0.0000 C   0  0  0  0  0  0           0  0  0
   -0.0448    0.3655    0.0000 C   0  0  0  0  0  0           0  0  0
   -2.1000    0.7759    0.0000 O   0  0  0  0  0  0           0  0  0
   -2.1000   -0.7552    0.0000 O   0  0  0  0  0  0           0  0  0
    1.2483    1.1241    0.0000 N   0  0  0  0  0  0           0  0  0
    1.9069    0.0034    0.0000 O   0  0  0  0  0  0           0  0  0
   -0.0483    1.1138    0.0000 C   0  0  0  0  0  0           0  0  0
    0.5966    1.4931    0.0000 C   0  0  0  0  0  0           0  0  0
   -0.7000    1.4862    0.0000 C   0  0  0  0  0  0           0  0  0
    0.5931    2.2448    0.0000 O   0  0  0  0  0  0           0  0  0
    0.3483   -1.0931    0.0000 H   0  0  0  0  0  0           0  0  0
   -1.1310   -2.2172    0.0000 O   0  0  0  0  0  0           0  0  0
   -1.1241   -1.4655    0.0000 C   0  0  3  0  0  0           0  0  0
   -1.3586   -0.7586    0.0000 C   0  0  3  0  0  0           0  0  0
   -0.3759   -1.4655    0.0000 C   0  0  0  0  0  0           0  0  0
   -0.7517   -0.3138    0.0000 O   0  0  0  0  0  0           0  0  0
   -1.3586    0.0000    0.0000 C   0  0  0  0  0  0           0  0  0
   -0.1448   -0.7586    0.0000 C   0  0  3  0  0  0           0  0  0
   -2.0931    0.0034    0.0000 O   0  0  0  0  0  0           0  0  0
   -0.1517   -0.0034    0.0000 N   0  0  3  0  0  0           0  0  0
   -2.8552    0.0069    0.0000 P   0  0  3  0  0  0           0  0  0
    0.4690    0.3759    0.0000 C   0  0  0  0  0  0           0  0  0
   -0.8000    0.3655    0.0000 C   0  0  0  0  0  0           0  0  0
   -2.8586    0.7759    0.0000 O   0  0  0  0  0  0           0  0  0
   -2.8586   -0.7552    0.0000 O   0  0  0  0  0  0           0  0  0
    0.4897    1.1241    0.0000 N   0  0  0  0  0  0           0  0  0
    1.1483    0.0034    0.0000 O   0  0  0  0  0  0           0  0  0
   -0.8069    1.1138    0.0000 C   0  0  0  0  0  0           0  0  0
   -0.1621    1.4931    0.0000 C   0  0  0  0  0  0           0  0  0
   -0.1655    2.2448    0.0000 N   0  0  0  0  0  0           0  0  0
    1.3655   -0.0034    0.0000 N   0  0  3  0  0  0           0  0  0
    2.0862    0.1931    0.0000 C   0  0  0  0  0  0           0  0  0
    1.3724   -0.7586    0.0000 C   0  0  3  0  0  0           0  0  0
    0.9586    0.6172    0.0000 C   0  0  0  0  0  0           0  0  0
    2.1241    0.9345    0.0000 C   0  0  0  0  0  0           0  0  0
    2.7103   -0.2103    0.0000 N   0  0  0  0  0  0           0  0  0
    0.7655   -0.3138    0.0000 O   0  0  0  0  0  0           0  0  0
    1.1414   -1.4655    0.0000 C   0  0  0  0  0  0           0  0  0
    1.4241    1.2034    0.0000 N   0  0  0  0  0  0           0  0  0
    2.7862    1.2724    0.0000 C   0  0  0  0  0  0           0  0  0
    3.3724    0.1276    0.0000 C   0  0  0  0  0  0           0  0  0
    0.1586   -0.7586    0.0000 C   0  0  3  0  0  0           0  0  0
    0.3931   -1.4655    0.0000 C   0  0  3  0  0  0           0  0  0
    3.4103    0.8690    0.0000 N   0  0  0  0  0  0           0  0  0
    2.8241    2.0138    0.0000 N   0  0  0  0  0  0           0  0  0
    0.1828    0.0000    0.0000 C   0  0  0  0  0  0           0  0  0
    0.3862   -2.2172    0.0000 O   0  0  0  0  0  0           0  0  0
   -0.5759    0.0034    0.0000 O   0  0  0  0  0  0           0  0  0
   -1.3379    0.0069    0.0000 P   0  0  3  0  0  0           0  0  0
   -1.3414    0.7759    0.0000 O   0  0  0  0  0  0           0  0  0
   -1.3414   -0.7552    0.0000 O   0  0  0  0  0  0           0  0  0
 11 15  2  0     0  0
 12 16  1  0     0  0
 12 17  2  0     0  0
 13 18  2  0     0  0
 16 19  1  0     0  0
 18 20  1  0     0  0
 19 21  2  0     0  0
  6  8  1  0     0  0
 23 24  1  0     0  0
 24 25  1  0     0  0
 24 26  1  0     0  0
 25 27  1  0     0  0
 25 28  1  0     0  0
 26 29  1  0     0  0
 28 30  1  0     0  0
 29 31  1  0     0  0
 30 32  1  0     0  0
 31 33  1  0     0  0
 31 34  1  0     0  0
 32 35  1  0     0  0
 32 36  2  0     0  0
 33 37  1  0     0  0
 33 38  2  0     0  0
 34 39  2  0     0  0
 37 40  2  0     0  0
 40 41  1  0     0  0
 27 29  1  0     0  0
 39 40  1  0     0  0
 18 19  1  0     0  0
  2  3  1  0     0  0
  3  4  1  0     0  0
  3  5  1  0     0  0
  4  6  1  0     0  0
  4  7  1  0     0  0
  5  8  1  0     0  0
 60  2  1  0     0  0
 11 23  1  0     0  0
 32  1  1  0     0  0
 22 58  1  0     0  0
  7  9  1  0     0  0
  8 10  1  0     0  0
  9 11  1  0     0  0
 10 12  1  0     0  0
 10 13  1  0     0  0
 11 14  1  0     0  0
 42 43  1  0     0  0
 42 44  1  0     0  0
 42 45  1  0     0  0
 43 46  2  0     0  0
 43 47  1  0     0  0
 44 48  1  0     0  0
 44 49  1  0     0  0
 45 50  2  0     0  0
 46 51  1  0     0  0
 47 52  2  0     0  0
 48 53  1  0     0  0
 49 54  1  0     0  0
 51 55  2  0     0  0
 51 56  1  0     0  0
 53 57  1  0     0  0
 54 58  1  0     0  0
 57 59  1  0     0  0
 59 60  1  0     0  0
 60 61  1  0     0  0
 60 62  2  0     0  0
 46 50  1  0     0  0
 52 55  1  0     0  0
 53 54  1  0     0  0
M  STY  5   1 SUP   2 SUP   3 SUP   4 SUP   5 SUP
M  SLB  5   1   1   2   2   3   3   4   4   5   5
M  SAL   1  1  22
M  SBL   1  1  39
M  SMT   1 \n3'
M  SBV   1  39    0.0400   -1.1200
M  SCL   1 LGRP
M  SAL   2 15   2   3   4   5   6   7   8   9  10  11  12  13  14  15  16
M  SAL   2  5  17  18  19  20  21
M  SBL   2  2  36  37
M  SMT   2 T
M  SBV   2  36   -0.9700    2.2200
M  SBV   2  37    0.9600   -2.2200
M  SCL   2 DNA
M  SAP   2  2   2  60 Br  11  23 Al
M  SAL   3  1   1
M  SBL   3  1  38
M  SMT   3 \n5'
M  SBV   3  38   -0.0300    1.1000
M  SCL   3 LGRP
M  SAL   4 15  23  24  25  26  27  28  29  30  31  32  33  34  35  36  37
M  SAL   4  4  38  39  40  41
M  SBL   4  2  37  38
M  SMT   4 C
M  SBV   4  37   -0.9600    2.2200
M  SBV   4  38    0.0300   -1.1000
M  SCL   4 DNA
M  SAP   4  2  23  11 Br  32   1 Al
M  SAL   5 15  42  43  44  45  46  47  48  49  50  51  52  53  54  55  56
M  SAL   5  6  57  58  59  60  61  62
M  SBL   5  2  36  39
M  SMT   5 A
M  SBV   5  39   -0.0400    1.1200
M  SBV   5  36    0.9700   -2.2200
M  SCL   5 DNA
M  SAP   5  2  58  22 Br  60   2 Al
M  END
>  <prID>
400

>  <IDDB>
97605

>  <pIC50_HIV_Integrase>
5.22184875

>  <Q>
-16.82702618

>  <Activity_Integrase>
Inactive_Integrase

NA
NA
NA
NA
$$$$

  Accelrys05311914342D 1   1.00000     0.00000     0

 62 68  0     0  0            999 V2000
   -2.8034   -1.0966    0.0000 O   0  0  0  0  0  0           0  0  0
   -1.3241    0.0069    0.0000 P   0  0  3  0  0  0           0  0  0
   -0.5621    0.0034    0.0000 O   0  0  0  0  0  0           0  0  0
   -1.3310    0.7759    0.0000 O   0  0  0  0  0  0           0  0  0
   -1.3310   -0.7552    0.0000 O   0  0  0  0  0  0           0  0  0
    0.1690    0.0000    0.0000 C   0  0  0  0  0  0           0  0  0
    0.1724   -0.7586    0.0000 C   0  0  3  0  0  0           0  0  0
    0.7793   -0.3138    0.0000 O   0  0  0  0  0  0           0  0  0
    0.4034   -1.4655    0.0000 C   0  0  3  0  0  0           0  0  0
    1.3862   -0.7586    0.0000 C   0  0  3  0  0  0           0  0  0
    1.1552   -1.4655    0.0000 C   0  0  0  0  0  0           0  0  0
    0.4000   -2.2172    0.0000 O   0  0  0  0  0  0           0  0  0
    1.3793   -0.0034    0.0000 N   0  0  3  0  0  0           0  0  0
    2.0000    0.3759    0.0000 C   0  0  0  0  0  0           0  0  0
    0.7276    0.3655    0.0000 C   0  0  0  0  0  0           0  0  0
    2.0207    1.1241    0.0000 N   0  0  0  0  0  0           0  0  0
    2.6759    0.0034    0.0000 O   0  0  0  0  0  0           0  0  0
    0.7207    1.1138    0.0000 C   0  0  0  0  0  0           0  0  0
    1.3690    1.4931    0.0000 C   0  0  0  0  0  0           0  0  0
    0.0690    1.4862    0.0000 C   0  0  0  0  0  0           0  0  0
    1.3621    2.2448    0.0000 O   0  0  0  0  0  0           0  0  0
    0.3621   -1.1172    0.0000 H   0  0  0  0  0  0           0  0  0
   -1.1172   -2.2172    0.0000 O   0  0  0  0  0  0           0  0  0
   -1.1138   -1.4655    0.0000 C   0  0  3  0  0  0           0  0  0
   -1.3448   -0.7586    0.0000 C   0  0  3  0  0  0           0  0  0
   -0.3621   -1.4655    0.0000 C   0  0  0  0  0  0           0  0  0
   -0.7379   -0.3138    0.0000 O   0  0  0  0  0  0           0  0  0
   -1.3448    0.0000    0.0000 C   0  0  0  0  0  0           0  0  0
   -0.1310   -0.7586    0.0000 C   0  0  3  0  0  0           0  0  0
   -2.0793    0.0034    0.0000 O   0  0  0  0  0  0           0  0  0
   -0.1379   -0.0034    0.0000 N   0  0  3  0  0  0           0  0  0
   -2.8414    0.0069    0.0000 P   0  0  3  0  0  0           0  0  0
    0.4828    0.3759    0.0000 C   0  0  0  0  0  0           0  0  0
   -0.7897    0.3655    0.0000 C   0  0  0  0  0  0           0  0  0
   -2.8448    0.7759    0.0000 O   0  0  0  0  0  0           0  0  0
   -2.8448   -0.7552    0.0000 O   0  0  0  0  0  0           0  0  0
    0.5034    1.1241    0.0000 N   0  0  0  0  0  0           0  0  0
    1.1586    0.0034    0.0000 O   0  0  0  0  0  0           0  0  0
   -0.7931    1.1138    0.0000 C   0  0  0  0  0  0           0  0  0
   -0.1483    1.4931    0.0000 C   0  0  0  0  0  0           0  0  0
   -0.1552    2.2448    0.0000 N   0  0  0  0  0  0           0  0  0
    0.6207   -0.0034    0.0000 N   0  0  3  0  0  0           0  0  0
    0.6276   -0.7586    0.0000 C   0  0  3  0  0  0           0  0  0
    1.3414    0.1931    0.0000 C   0  0  0  0  0  0           0  0  0
    0.2138    0.6172    0.0000 C   0  0  0  0  0  0           0  0  0
    0.0207   -0.3138    0.0000 O   0  0  0  0  0  0           0  0  0
    0.3966   -1.4655    0.0000 C   0  0  0  0  0  0           0  0  0
    1.3793    0.9345    0.0000 C   0  0  0  0  0  0           0  0  0
    1.9655   -0.2103    0.0000 N   0  0  0  0  0  0           0  0  0
    0.6793    1.2034    0.0000 N   0  0  0  0  0  0           0  0  0
   -0.5862   -0.7586    0.0000 C   0  0  3  0  0  0           0  0  0
   -0.3552   -1.4655    0.0000 C   0  0  3  0  0  0           0  0  0
    2.0414    1.2724    0.0000 C   0  0  0  0  0  0           0  0  0
    2.6276    0.1276    0.0000 C   0  0  0  0  0  0           0  0  0
   -0.5621    0.0000    0.0000 C   0  0  0  0  0  0           0  0  0
   -0.3586   -2.2172    0.0000 O   0  0  0  0  0  0           0  0  0
    2.6655    0.8690    0.0000 N   0  0  0  0  0  0           0  0  0
    2.0793    2.0138    0.0000 N   0  0  0  0  0  0           0  0  0
   -1.3207    0.0034    0.0000 O   0  0  0  0  0  0           0  0  0
   -2.0828    0.0069    0.0000 P   0  0  3  0  0  0           0  0  0
   -2.0862    0.7759    0.0000 O   0  0  0  0  0  0           0  0  0
   -2.0862   -0.7552    0.0000 O   0  0  0  0  0  0           0  0  0
 13 15  1  0     0  0
 14 16  1  0     0  0
 14 17  2  0     0  0
 15 18  2  0     0  0
 16 19  1  0     0  0
 18 20  1  0     0  0
 19 21  2  0     0  0
 10 11  1  0     0  0
 23 24  1  0     0  0
 24 25  1  0     0  0
 24 26  1  0     0  0
 25 27  1  0     0  0
 25 28  1  0     0  0
 26 29  1  0     0  0
 28 30  1  0     0  0
 29 31  1  0     0  0
 30 32  1  0     0  0
 31 33  1  0     0  0
 31 34  1  0     0  0
 32 35  1  0     0  0
 32 36  2  0     0  0
 33 37  1  0     0  0
 33 38  2  0     0  0
 34 39  2  0     0  0
 37 40  2  0     0  0
 40 41  1  0     0  0
 27 29  1  0     0  0
 39 40  1  0     0  0
 18 19  1  0     0  0
  2  3  1  0     0  0
  2  4  1  0     0  0
  2  5  2  0     0  0
  3  6  1  0     0  0
  6  7  1  0     0  0
  7  8  1  0     0  0
 56  2  1  0     0  0
 60 23  1  0     0  0
 32  1  1  0     0  0
 22 12  1  0     0  0
  7  9  1  0     0  0
  8 10  1  0     0  0
  9 11  1  0     0  0
  9 12  1  0     0  0
 10 13  1  0     0  0
 13 14  1  0     0  0
 42 43  1  0     0  0
 42 44  1  0     0  0
 42 45  1  0     0  0
 43 46  1  0     0  0
 43 47  1  0     0  0
 44 48  2  0     0  0
 44 49  1  0     0  0
 45 50  2  0     0  0
 46 51  1  0     0  0
 47 52  1  0     0  0
 48 53  1  0     0  0
 49 54  2  0     0  0
 51 55  1  0     0  0
 52 56  1  0     0  0
 53 57  2  0     0  0
 53 58  1  0     0  0
 55 59  1  0     0  0
 59 60  1  0     0  0
 60 61  1  0     0  0
 60 62  2  0     0  0
 48 50  1  0     0  0
 51 52  1  0     0  0
 54 57  1  0     0  0
M  STY  5   1 SUP   2 SUP   3 SUP   4 SUP   5 SUP
M  SLB  5   1   1   2   2   3   3   4   4   5   5
M  SAL   1  1  22
M  SBL   1  1  39
M  SMT   1 \n3'
M  SBV   1  39    0.0500   -1.1000
M  SCL   1 LGRP
M  SAL   2 15   2   3   4   5   6   7   8   9  10  11  12  13  14  15  16
M  SAL   2  5  17  18  19  20  21
M  SBL   2  2  36  39
M  SMT   2 T
M  SBV   2  36    0.9600   -2.2200
M  SBV   2  39   -0.0500    1.1000
M  SCL   2 DNA
M  SAP   2  2   2  56 Al  12  22 Br
M  SAL   3  1   1
M  SBL   3  1  38
M  SMT   3 \n5'
M  SBV   3  38   -0.0400    1.1000
M  SCL   3 LGRP
M  SAL   4 15  23  24  25  26  27  28  29  30  31  32  33  34  35  36  37
M  SAL   4  4  38  39  40  41
M  SBL   4  2  37  38
M  SMT   4 C
M  SBV   4  37   -0.9600    2.2200
M  SBV   4  38    0.0400   -1.1000
M  SCL   4 DNA
M  SAP   4  2  23  60 Br  32   1 Al
M  SAL   5 15  42  43  44  45  46  47  48  49  50  51  52  53  54  55  56
M  SAL   5  6  57  58  59  60  61  62
M  SBL   5  2  36  37
M  SMT   5 A
M  SBV   5  36   -0.9600    2.2200
M  SBV   5  37    0.9600   -2.2200
M  SCL   5 DNA
M  SAP   5  2  56   2 Br  60  23 Al
M  END
>  <prID>
401

>  <IDDB>
97606

>  <pIC50_HIV_Integrase>
4.698970004

>  <Q>
-16.8270258

>  <Activity_Integrase>
Inactive_Integrase

NA
NA
NA
NA
$$$$

  Accelrys05311914342D 1   1.00000     0.00000     0

 61 67  0     0  0            999 V2000
    0.3621   -1.0655    0.0000 H   0  0  0  0  0  0           0  0  0
   -2.8034   -1.0724    0.0000 O   0  0  0  0  0  0           0  0  0
   -1.1172   -2.1931    0.0000 O   0  0  0  0  0  0           0  0  0
   -1.1103   -1.4414    0.0000 C   0  0  3  0  0  0           0  0  0
   -1.3448   -0.7310    0.0000 C   0  0  3  0  0  0           0  0  0
   -0.3621   -1.4414    0.0000 C   0  0  0  0  0  0           0  0  0
   -0.7379   -0.2862    0.0000 O   0  0  0  0  0  0           0  0  0
   -1.3448    0.0241    0.0000 C   0  0  0  0  0  0           0  0  0
   -0.1310   -0.7310    0.0000 C   0  0  3  0  0  0           0  0  0
   -2.0793    0.0276    0.0000 O   0  0  0  0  0  0           0  0  0
   -0.1379    0.0207    0.0000 N   0  0  3  0  0  0           0  0  0
   -2.8414    0.0345    0.0000 P   0  0  3  0  0  0           0  0  0
    0.4828    0.4000    0.0000 C   0  0  0  0  0  0           0  0  0
   -0.7897    0.3897    0.0000 C   0  0  0  0  0  0           0  0  0
   -2.8448    0.8000    0.0000 O   0  0  0  0  0  0           0  0  0
   -2.8448   -0.7310    0.0000 O   0  0  0  0  0  0           0  0  0
    0.5034    1.1483    0.0000 N   0  0  0  0  0  0           0  0  0
    1.1621    0.0310    0.0000 O   0  0  0  0  0  0           0  0  0
   -0.7931    1.1379    0.0000 C   0  0  0  0  0  0           0  0  0
   -0.1483    1.5172    0.0000 C   0  0  0  0  0  0           0  0  0
   -0.1517    2.2690    0.0000 N   0  0  0  0  0  0           0  0  0
    0.6207    0.0207    0.0000 N   0  0  3  0  0  0           0  0  0
    0.6276   -0.7310    0.0000 C   0  0  3  0  0  0           0  0  0
    1.3414    0.2172    0.0000 C   0  0  0  0  0  0           0  0  0
    0.2138    0.6414    0.0000 C   0  0  0  0  0  0           0  0  0
    0.3966   -1.4414    0.0000 C   0  0  0  0  0  0           0  0  0
    0.0207   -0.2862    0.0000 O   0  0  0  0  0  0           0  0  0
    1.3793    0.9586    0.0000 C   0  0  0  0  0  0           0  0  0
    1.9655   -0.1862    0.0000 N   0  0  0  0  0  0           0  0  0
    0.6793    1.2276    0.0000 N   0  0  0  0  0  0           0  0  0
   -0.3517   -1.4414    0.0000 C   0  0  3  0  0  0           0  0  0
   -0.5862   -0.7310    0.0000 C   0  0  3  0  0  0           0  0  0
    2.0414    1.2966    0.0000 C   0  0  0  0  0  0           0  0  0
    2.6276    0.1517    0.0000 C   0  0  0  0  0  0           0  0  0
   -0.3586   -2.1931    0.0000 O   0  0  0  0  0  0           0  0  0
   -0.5621    0.0241    0.0000 C   0  0  0  0  0  0           0  0  0
    2.6655    0.8931    0.0000 N   0  0  0  0  0  0           0  0  0
    2.0793    2.0379    0.0000 N   0  0  0  0  0  0           0  0  0
   -1.3207    0.0276    0.0000 O   0  0  0  0  0  0           0  0  0
   -2.0828    0.0345    0.0000 P   0  0  3  0  0  0           0  0  0
   -2.0862    0.8000    0.0000 O   0  0  0  0  0  0           0  0  0
   -2.0862   -0.7310    0.0000 O   0  0  0  0  0  0           0  0  0
   -1.3241    0.0345    0.0000 P   0  0  3  0  0  0           0  0  0
   -0.5621    0.0276    0.0000 O   0  0  0  0  0  0           0  0  0
   -1.3276    0.8000    0.0000 O   0  0  0  0  0  0           0  0  0
   -1.3276   -0.7310    0.0000 O   0  0  0  0  0  0           0  0  0
    0.1724    0.0241    0.0000 C   0  0  0  0  0  0           0  0  0
    0.1724   -0.7310    0.0000 C   0  0  3  0  0  0           0  0  0
    0.7793   -0.2862    0.0000 O   0  0  0  0  0  0           0  0  0
    0.4034   -1.4414    0.0000 C   0  0  3  0  0  0           0  0  0
    1.3862   -0.7310    0.0000 C   0  0  3  0  0  0           0  0  0
    1.1552   -1.4414    0.0000 C   0  0  0  0  0  0           0  0  0
    0.4000   -2.1931    0.0000 O   0  0  0  0  0  0           0  0  0
    1.3793    0.0207    0.0000 N   0  0  3  0  0  0           0  0  0
    2.0000    0.4000    0.0000 C   0  0  0  0  0  0           0  0  0
    0.7276    0.3897    0.0000 C   0  0  0  0  0  0           0  0  0
    2.0207    1.1483    0.0000 N   0  0  0  0  0  0           0  0  0
    2.6793    0.0310    0.0000 O   0  0  0  0  0  0           0  0  0
    0.7241    1.1379    0.0000 C   0  0  0  0  0  0           0  0  0
    1.3690    1.5172    0.0000 C   0  0  0  0  0  0           0  0  0
    1.3621    2.2690    0.0000 N   0  0  0  0  0  0           0  0  0
 12 16  2  0     0  0
 13 17  1  0     0  0
 13 18  2  0     0  0
 14 19  2  0     0  0
 17 20  2  0     0  0
 20 21  1  0     0  0
  7  9  1  0     0  0
 19 20  1  0     0  0
  3  4  1  0     0  0
 22 23  1  0     0  0
 22 24  1  0     0  0
 22 25  1  0     0  0
 23 26  1  0     0  0
 23 27  1  0     0  0
 24 28  2  0     0  0
 24 29  1  0     0  0
 25 30  2  0     0  0
 26 31  1  0     0  0
 27 32  1  0     0  0
 28 33  1  0     0  0
 29 34  2  0     0  0
 31 35  1  0     0  0
 32 36  1  0     0  0
 33 37  2  0     0  0
 33 38  1  0     0  0
 36 39  1  0     0  0
 39 40  1  0     0  0
 40 41  1  0     0  0
 40 42  2  0     0  0
 28 30  1  0     0  0
 31 32  1  0     0  0
 34 37  1  0     0  0
  4  5  1  0     0  0
  4  6  1  0     0  0
  5  7  1  0     0  0
  5  8  1  0     0  0
  6  9  1  0     0  0
  8 10  1  0     0  0
 40  3  1  0     0  0
 12  2  1  0     0  0
  1 53  1  0     0  0
 35 43  1  0     0  0
  9 11  1  0     0  0
 10 12  1  0     0  0
 11 13  1  0     0  0
 11 14  1  0     0  0
 12 15  1  0     0  0
 43 44  1  0     0  0
 43 45  1  0     0  0
 43 46  2  0     0  0
 44 47  1  0     0  0
 47 48  1  0     0  0
 48 49  1  0     0  0
 48 50  1  0     0  0
 49 51  1  0     0  0
 50 52  1  0     0  0
 50 53  1  0     0  0
 51 54  1  0     0  0
 54 55  1  0     0  0
 54 56  1  0     0  0
 55 57  1  0     0  0
 55 58  2  0     0  0
 56 59  2  0     0  0
 57 60  2  0     0  0
 60 61  1  0     0  0
 51 52  1  0     0  0
 59 60  1  0     0  0
M  STY  5   1 SUP   2 SUP   3 SUP   4 SUP   5 SUP
M  SLB  5   1   1   2   2   3   3   4   4   5   5
M  SAL   1 15   3   4   5   6   7   8   9  10  11  12  13  14  15  16  17
M  SAL   1  4  18  19  20  21
M  SBL   1  2  39  40
M  SMT   1 C
M  SBV   1  39   -0.9600    2.2300
M  SBV   1  40    0.0400   -1.1100
M  SCL   1 DNA
M  SAP   1  2   3  40 Br  12   2 Al
M  SAL   2 15  22  23  24  25  26  27  28  29  30  31  32  33  34  35  36
M  SAL   2  6  37  38  39  40  41  42
M  SBL   2  2  39  42
M  SMT   2 A
M  SBV   2  42   -0.9600    2.2300
M  SBV   2  39    0.9600   -2.2300
M  SCL   2 DNA
M  SAP   2  2  35  43 Br  40   3 Al
M  SAL   3  1   2
M  SBL   3  1  40
M  SMT   3 \n5'
M  SBV   3  40   -0.0400    1.1100
M  SCL   3 LGRP
M  SAL   4  1   1
M  SBL   4  1  41
M  SMT   4 \n3'
M  SBV   4  41    0.0500   -1.1300
M  SCL   4 LGRP
M  SAL   5 15  43  44  45  46  47  48  49  50  51  52  53  54  55  56  57
M  SAL   5  4  58  59  60  61
M  SBL   5  2  41  42
M  SMT   5 C
M  SBV   5  42    0.9600   -2.2300
M  SBV   5  41   -0.0500    1.1300
M  SCL   5 DNA
M  SAP   5  2  43  35 Al  53   1 Br
M  END
>  <prID>
402

>  <IDDB>
97607

>  <pIC50_HIV_Integrase>
4.568636236

>  <Q>
-17.47113895

>  <Activity_Integrase>
Inactive_Integrase

NA
NA
NA
NA
$$$$

  Accelrys05311914342D 1   1.00000     0.00000     0

 63 70  0     0  0            999 V2000
    0.1862   -1.0724    0.0000 H   0  0  0  0  0  0           0  0  0
   -1.2931   -2.1966    0.0000 O   0  0  0  0  0  0           0  0  0
   -1.2897   -1.4483    0.0000 C   0  0  3  0  0  0           0  0  0
   -1.5207   -0.7379    0.0000 C   0  0  3  0  0  0           0  0  0
   -0.5379   -1.4483    0.0000 C   0  0  0  0  0  0           0  0  0
   -0.9138   -0.2931    0.0000 O   0  0  0  0  0  0           0  0  0
   -1.5207    0.0207    0.0000 C   0  0  0  0  0  0           0  0  0
   -0.3069   -0.7379    0.0000 C   0  0  3  0  0  0           0  0  0
   -2.2552    0.0241    0.0000 O   0  0  0  0  0  0           0  0  0
   -0.3138    0.0138    0.0000 N   0  0  3  0  0  0           0  0  0
   -3.0172    0.0276    0.0000 P   0  0  3  0  0  0           0  0  0
    0.3069    0.3931    0.0000 C   0  0  0  0  0  0           0  0  0
   -0.9655    0.3862    0.0000 C   0  0  0  0  0  0           0  0  0
   -3.0207    0.7931    0.0000 O   0  0  0  0  0  0           0  0  0
   -3.0207   -0.7345    0.0000 O   0  0  0  0  0  0           0  0  0
    0.3276    1.1448    0.0000 N   0  0  0  0  0  0           0  0  0
    0.9862    0.0241    0.0000 O   0  0  0  0  0  0           0  0  0
   -0.9690    1.1345    0.0000 C   0  0  0  0  0  0           0  0  0
   -0.3241    1.5138    0.0000 C   0  0  0  0  0  0           0  0  0
   -0.3310    2.2621    0.0000 N   0  0  0  0  0  0           0  0  0
    0.4448    0.0138    0.0000 N   0  0  3  0  0  0           0  0  0
    0.4517   -0.7379    0.0000 C   0  0  3  0  0  0           0  0  0
    1.1655    0.2103    0.0000 C   0  0  0  0  0  0           0  0  0
    0.0379    0.6345    0.0000 C   0  0  0  0  0  0           0  0  0
   -0.1552   -0.2931    0.0000 O   0  0  0  0  0  0           0  0  0
    0.2207   -1.4483    0.0000 C   0  0  0  0  0  0           0  0  0
    1.2034    0.9517    0.0000 C   0  0  0  0  0  0           0  0  0
    1.7897   -0.1931    0.0000 N   0  0  0  0  0  0           0  0  0
    0.5034    1.2207    0.0000 N   0  0  0  0  0  0           0  0  0
   -0.7621   -0.7379    0.0000 C   0  0  3  0  0  0           0  0  0
   -0.5310   -1.4483    0.0000 C   0  0  3  0  0  0           0  0  0
    1.8655    1.2931    0.0000 C   0  0  0  0  0  0           0  0  0
    2.4517    0.1448    0.0000 C   0  0  0  0  0  0           0  0  0
   -0.7379    0.0207    0.0000 C   0  0  0  0  0  0           0  0  0
   -0.5345   -2.1966    0.0000 O   0  0  0  0  0  0           0  0  0
    2.4897    0.8862    0.0000 N   0  0  0  0  0  0           0  0  0
    1.9034    2.0345    0.0000 N   0  0  0  0  0  0           0  0  0
   -1.4966    0.0241    0.0000 O   0  0  0  0  0  0           0  0  0
   -2.2586    0.0276    0.0000 P   0  0  3  0  0  0           0  0  0
   -2.2621    0.7931    0.0000 O   0  0  0  0  0  0           0  0  0
   -2.2621   -0.7345    0.0000 O   0  0  0  0  0  0           0  0  0
   -1.5000    0.0276    0.0000 P   0  0  3  0  0  0           0  0  0
   -0.7379    0.0241    0.0000 O   0  0  0  0  0  0           0  0  0
   -1.5069    0.7931    0.0000 O   0  0  0  0  0  0           0  0  0
   -1.5069   -0.7345    0.0000 O   0  0  0  0  0  0           0  0  0
    0.0207    0.0207    0.0000 C   0  0  0  0  0  0           0  0  0
   -0.0034   -0.7379    0.0000 C   0  0  3  0  0  0           0  0  0
    0.6034   -0.2931    0.0000 O   0  0  0  0  0  0           0  0  0
    0.2276   -1.4483    0.0000 C   0  0  3  0  0  0           0  0  0
    1.2103   -0.7379    0.0000 C   0  0  3  0  0  0           0  0  0
    0.9793   -1.4483    0.0000 C   0  0  0  0  0  0           0  0  0
    0.2241   -2.1966    0.0000 O   0  0  0  0  0  0           0  0  0
    1.2034    0.0138    0.0000 N   0  0  3  0  0  0           0  0  0
    1.9241    0.2103    0.0000 C   0  0  0  0  0  0           0  0  0
    0.7966    0.6345    0.0000 C   0  0  0  0  0  0           0  0  0
    1.9621    0.9517    0.0000 C   0  0  0  0  0  0           0  0  0
    2.5483   -0.1931    0.0000 N   0  0  0  0  0  0           0  0  0
    1.2621    1.2207    0.0000 N   0  0  0  0  0  0           0  0  0
    2.6241    1.2931    0.0000 C   0  0  0  0  0  0           0  0  0
    3.2103    0.1448    0.0000 C   0  0  0  0  0  0           0  0  0
    3.2483    0.8862    0.0000 N   0  0  0  0  0  0           0  0  0
    2.6621    2.0345    0.0000 N   0  0  0  0  0  0           0  0  0
   -2.9793   -1.0759    0.0000 O   0  0  0  0  0  0           0  0  0
  2  3  1  0     0  0
  3  4  1  0     0  0
  3  5  1  0     0  0
  4  6  1  0     0  0
  4  7  1  0     0  0
 21 22  1  0     0  0
 21 23  1  0     0  0
 21 24  1  0     0  0
 22 25  1  0     0  0
 22 26  1  0     0  0
 23 27  2  0     0  0
 23 28  1  0     0  0
 24 29  2  0     0  0
 25 30  1  0     0  0
 26 31  1  0     0  0
 27 32  1  0     0  0
 28 33  2  0     0  0
 30 34  1  0     0  0
 31 35  1  0     0  0
 32 36  2  0     0  0
 32 37  1  0     0  0
 34 38  1  0     0  0
 38 39  1  0     0  0
 39 40  1  0     0  0
 39 41  2  0     0  0
 27 29  1  0     0  0
 30 31  1  0     0  0
 33 36  1  0     0  0
  5  8  1  0     0  0
  7  9  1  0     0  0
  8 10  1  0     0  0
  9 11  1  0     0  0
 10 12  1  0     0  0
 11 63  1  0     0  0
  1 52  1  0     0  0
 35 42  1  0     0  0
 39  2  1  0     0  0
 10 13  1  0     0  0
 11 14  1  0     0  0
 11 15  2  0     0  0
 12 16  1  0     0  0
 12 17  2  0     0  0
 13 18  2  0     0  0
 16 19  2  0     0  0
 19 20  1  0     0  0
  6  8  1  0     0  0
 42 43  1  0     0  0
 42 44  1  0     0  0
 42 45  2  0     0  0
 43 46  1  0     0  0
 46 47  1  0     0  0
 47 48  1  0     0  0
 47 49  1  0     0  0
 48 50  1  0     0  0
 49 51  1  0     0  0
 49 52  1  0     0  0
 50 53  1  0     0  0
 53 54  1  0     0  0
 53 55  1  0     0  0
 54 56  2  0     0  0
 54 57  1  0     0  0
 55 58  2  0     0  0
 56 59  1  0     0  0
 57 60  2  0     0  0
 59 61  2  0     0  0
 59 62  1  0     0  0
 50 51  1  0     0  0
 56 58  1  0     0  0
 60 61  1  0     0  0
 18 19  1  0     0  0
M  STY  5   1 SUP   2 SUP   3 SUP   4 SUP   5 SUP
M  SLB  5   1   1   2   2   3   3   4   4   5   5
M  SAL   1  1   1
M  SBL   1  1  35
M  SMT   1 \n3'
M  SBV   1  35    0.0400   -1.1200
M  SCL   1 LGRP
M  SAL   2 15   2   3   4   5   6   7   8   9  10  11  12  13  14  15  16
M  SAL   2  4  17  18  19  20
M  SBL   2  2  34  37
M  SMT   2 C
M  SBV   2  37   -0.9700    2.2200
M  SBV   2  34    0.0400   -1.1000
M  SCL   2 DNA
M  SAP   2  2   2  39 Br  11  63 Al
M  SAL   3 15  42  43  44  45  46  47  48  49  50  51  52  53  54  55  56
M  SAL   3  6  57  58  59  60  61  62
M  SBL   3  2  35  36
M  SMT   3 A
M  SBV   3  36    0.9600   -2.2200
M  SBV   3  35   -0.0400    1.1200
M  SCL   3 DNA
M  SAP   3  2  42  35 Al  52   1 Br
M  SAL   4 15  21  22  23  24  25  26  27  28  29  30  31  32  33  34  35
M  SAL   4  6  36  37  38  39  40  41
M  SBL   4  2  36  37
M  SMT   4 A
M  SBV   4  36   -0.9600    2.2200
M  SBV   4  37    0.9700   -2.2200
M  SCL   4 DNA
M  SAP   4  2  35  42 Br  39   2 Al
M  SAL   5  1  63
M  SBL   5  1  34
M  SMT   5 \n5'
M  SBV   5  34   -0.0400    1.1000
M  SCL   5 LGRP
M  END
>  <prID>
403

>  <IDDB>
97608

>  <pIC50_HIV_Integrase>
4.657577319

>  <Q>
-17.2666117

>  <Activity_Integrase>
Inactive_Integrase

NA
NA
NA
NA
$$$$

  Accelrys05311914342D 1   1.00000     0.00000     0

 64 71  0     0  0            999 V2000
   -3.0414   -1.0724    0.0000 O   0  0  0  0  0  0           0  0  0
    0.1276   -1.0690    0.0000 H   0  0  0  0  0  0           0  0  0
    0.3828    0.0207    0.0000 N   0  0  3  0  0  0           0  0  0
    0.3897   -0.7345    0.0000 C   0  0  3  0  0  0           0  0  0
    1.1069    0.2138    0.0000 C   0  0  0  0  0  0           0  0  0
   -0.0241    0.6414    0.0000 C   0  0  0  0  0  0           0  0  0
    0.1586   -1.4448    0.0000 C   0  0  0  0  0  0           0  0  0
   -0.2172   -0.2897    0.0000 O   0  0  0  0  0  0           0  0  0
    1.1414    0.9586    0.0000 C   0  0  0  0  0  0           0  0  0
    1.7276   -0.1897    0.0000 N   0  0  0  0  0  0           0  0  0
    0.4448    1.2276    0.0000 N   0  0  0  0  0  0           0  0  0
   -0.5897   -1.4448    0.0000 C   0  0  3  0  0  0           0  0  0
   -0.8207   -0.7345    0.0000 C   0  0  3  0  0  0           0  0  0
    1.8034    1.2966    0.0000 C   0  0  0  0  0  0           0  0  0
    2.3897    0.1483    0.0000 C   0  0  0  0  0  0           0  0  0
   -0.5931   -2.1931    0.0000 O   0  0  0  0  0  0           0  0  0
   -0.8000    0.0241    0.0000 C   0  0  0  0  0  0           0  0  0
    2.4276    0.8931    0.0000 N   0  0  0  0  0  0           0  0  0
    1.8414    2.0379    0.0000 N   0  0  0  0  0  0           0  0  0
   -1.5586    0.0276    0.0000 O   0  0  0  0  0  0           0  0  0
   -2.3207    0.0310    0.0000 P   0  0  3  0  0  0           0  0  0
   -2.3241    0.8000    0.0000 O   0  0  0  0  0  0           0  0  0
   -2.3241   -0.7310    0.0000 O   0  0  0  0  0  0           0  0  0
   -1.3517   -2.1931    0.0000 O   0  0  0  0  0  0           0  0  0
   -1.3483   -1.4448    0.0000 C   0  0  3  0  0  0           0  0  0
   -1.5793   -0.7345    0.0000 C   0  0  3  0  0  0           0  0  0
   -0.6000   -1.4448    0.0000 C   0  0  0  0  0  0           0  0  0
   -0.9724   -0.2897    0.0000 O   0  0  0  0  0  0           0  0  0
   -1.5828    0.0241    0.0000 C   0  0  0  0  0  0           0  0  0
   -0.3655   -0.7345    0.0000 C   0  0  3  0  0  0           0  0  0
   -2.3172    0.0276    0.0000 O   0  0  0  0  0  0           0  0  0
   -0.3724    0.0207    0.0000 N   0  0  3  0  0  0           0  0  0
   -3.0793    0.0310    0.0000 P   0  0  3  0  0  0           0  0  0
    0.2483    0.4000    0.0000 C   0  0  0  0  0  0           0  0  0
   -1.0241    0.3897    0.0000 C   0  0  0  0  0  0           0  0  0
   -3.0828    0.8000    0.0000 O   0  0  0  0  0  0           0  0  0
   -3.0828   -0.7310    0.0000 O   0  0  0  0  0  0           0  0  0
    0.2655    1.1483    0.0000 N   0  0  0  0  0  0           0  0  0
    0.9241    0.0276    0.0000 O   0  0  0  0  0  0           0  0  0
   -1.0310    1.1379    0.0000 C   0  0  0  0  0  0           0  0  0
   -0.3862    1.5172    0.0000 C   0  0  0  0  0  0           0  0  0
   -0.3897    2.2655    0.0000 N   0  0  0  0  0  0           0  0  0
   -1.5621    0.0310    0.0000 P   0  0  3  0  0  0           0  0  0
   -0.8000    0.0276    0.0000 O   0  0  0  0  0  0           0  0  0
   -1.5655    0.8000    0.0000 O   0  0  0  0  0  0           0  0  0
   -1.5655   -0.7310    0.0000 O   0  0  0  0  0  0           0  0  0
   -0.0655    0.0241    0.0000 C   0  0  0  0  0  0           0  0  0
   -0.0655   -0.7345    0.0000 C   0  0  3  0  0  0           0  0  0
    0.5414   -0.2897    0.0000 O   0  0  0  0  0  0           0  0  0
    0.1690   -1.4448    0.0000 C   0  0  3  0  0  0           0  0  0
    1.1483   -0.7345    0.0000 C   0  0  3  0  0  0           0  0  0
    0.9172   -1.4448    0.0000 C   0  0  0  0  0  0           0  0  0
    0.1621   -2.1931    0.0000 O   0  0  0  0  0  0           0  0  0
    1.1414    0.0207    0.0000 N   0  0  3  0  0  0           0  0  0
    1.8621    0.2138    0.0000 C   0  0  0  0  0  0           0  0  0
    0.7345    0.6414    0.0000 C   0  0  0  0  0  0           0  0  0
    1.9000    0.9586    0.0000 C   0  0  0  0  0  0           0  0  0
    2.4862   -0.1897    0.0000 N   0  0  0  0  0  0           0  0  0
    1.2034    1.2276    0.0000 N   0  0  0  0  0  0           0  0  0
    2.5621    1.2966    0.0000 C   0  0  0  0  0  0           0  0  0
    3.1483    0.1483    0.0000 C   0  0  0  0  0  0           0  0  0
    3.1862    0.8931    0.0000 N   0  0  0  0  0  0           0  0  0
    2.6000    2.0379    0.0000 O   0  0  0  0  0  0           0  0  0
    3.7724   -0.2552    0.0000 N   0  0  0  0  0  0           0  0  0
  7 12  1  0     0  0
  8 13  1  0     0  0
  9 14  1  0     0  0
 10 15  2  0     0  0
 12 16  1  0     0  0
 13 17  1  0     0  0
 14 18  2  0     0  0
 14 19  1  0     0  0
 17 20  1  0     0  0
 24 25  1  0     0  0
 25 26  1  0     0  0
 25 27  1  0     0  0
 26 28  1  0     0  0
 26 29  1  0     0  0
 27 30  1  0     0  0
 29 31  1  0     0  0
 30 32  1  0     0  0
 31 33  1  0     0  0
 32 34  1  0     0  0
 32 35  1  0     0  0
 33 36  1  0     0  0
 33 37  2  0     0  0
 34 38  1  0     0  0
 34 39  2  0     0  0
 35 40  2  0     0  0
 38 41  2  0     0  0
 41 42  1  0     0  0
 28 30  1  0     0  0
 40 41  1  0     0  0
 20 21  1  0     0  0
 21 22  1  0     0  0
 21 23  2  0     0  0
  9 11  1  0     0  0
 12 13  1  0     0  0
 15 18  1  0     0  0
  3  4  1  0     0  0
  3  5  1  0     0  0
  3  6  1  0     0  0
  4  7  1  0     0  0
  4  8  1  0     0  0
 16 43  1  0     0  0
 21 24  1  0     0  0
 33  1  1  0     0  0
  2 53  1  0     0  0
  5  9  2  0     0  0
  5 10  1  0     0  0
  6 11  2  0     0  0
 43 44  1  0     0  0
 43 45  1  0     0  0
 43 46  2  0     0  0
 44 47  1  0     0  0
 47 48  1  0     0  0
 48 49  1  0     0  0
 48 50  1  0     0  0
 49 51  1  0     0  0
 50 52  1  0     0  0
 50 53  1  0     0  0
 51 54  1  0     0  0
 54 55  1  0     0  0
 54 56  1  0     0  0
 55 57  2  0     0  0
 55 58  1  0     0  0
 56 59  2  0     0  0
 57 60  1  0     0  0
 58 61  2  0     0  0
 60 62  1  0     0  0
 60 63  2  0     0  0
 61 64  1  0     0  0
 51 52  1  0     0  0
 57 59  1  0     0  0
 61 62  1  0     0  0
M  STY  5   1 SUP   2 SUP   3 SUP   4 SUP   5 SUP
M  SLB  5   1   1   2   2   3   3   4   4   5   5
M  SAL   1  1   1
M  SBL   1  1  43
M  SMT   1 \n5'
M  SBV   1  43   -0.0400    1.1100
M  SCL   1 LGRP
M  SAL   2 15   3   4   5   6   7   8   9  10  11  12  13  14  15  16  17
M  SAL   2  6  18  19  20  21  22  23
M  SBL   2  2  41  42
M  SMT   2 A
M  SBV   2  41   -0.9700    2.2300
M  SBV   2  42    0.9700   -2.2300
M  SCL   2 DNA
M  SAP   2  2  16  43 Br  21  24 Al
M  SAL   3  1   2
M  SBL   3  1  44
M  SMT   3 \n3'
M  SBV   3  44    0.0300   -1.1300
M  SCL   3 LGRP
M  SAL   4 15  24  25  26  27  28  29  30  31  32  33  34  35  36  37  38
M  SAL   4  4  39  40  41  42
M  SBL   4  2  42  43
M  SMT   4 C
M  SBV   4  42   -0.9700    2.2300
M  SBV   4  43    0.0400   -1.1100
M  SCL   4 DNA
M  SAP   4  2  24  21 Br  33   1 Al
M  SAL   5 15  43  44  45  46  47  48  49  50  51  52  53  54  55  56  57
M  SAL   5  7  58  59  60  61  62  63  64
M  SBL   5  2  41  44
M  SMT   5 G
M  SBV   5  41    0.9700   -2.2300
M  SBV   5  44   -0.0300    1.1300
M  SCL   5 DNA
M  SAP   5  2  43  16 Al  53   2 Br
M  END
>  <prID>
404

>  <IDDB>
97609

>  <pIC50_HIV_Integrase>
4.823908741

>  <Q>
-18.36389435

>  <Activity_Integrase>
Inactive_Integrase

NA
NA
NA
NA
$$$$

  Accelrys05311914342D 1   1.00000     0.00000     0

 63 69  0     0  0            999 V2000
   -1.3276    0.0138    0.0000 P   0  0  3  0  0  0           0  0  0
   -0.5655    0.0069    0.0000 O   0  0  0  0  0  0           0  0  0
   -1.3310    0.7793    0.0000 O   0  0  0  0  0  0           0  0  0
   -1.3310   -0.7483    0.0000 O   0  0  0  0  0  0           0  0  0
    0.1690    0.0034    0.0000 C   0  0  0  0  0  0           0  0  0
    0.1690   -0.7517    0.0000 C   0  0  3  0  0  0           0  0  0
    0.7759   -0.3069    0.0000 O   0  0  0  0  0  0           0  0  0
    0.4000   -1.4621    0.0000 C   0  0  3  0  0  0           0  0  0
    1.3828   -0.7517    0.0000 C   0  0  3  0  0  0           0  0  0
    1.1517   -1.4621    0.0000 C   0  0  0  0  0  0           0  0  0
    0.3966   -2.2138    0.0000 O   0  0  0  0  0  0           0  0  0
    1.3759    0.0000    0.0000 N   0  0  3  0  0  0           0  0  0
    1.9966    0.3793    0.0000 C   0  0  0  0  0  0           0  0  0
    0.7241    0.3690    0.0000 C   0  0  0  0  0  0           0  0  0
    2.0172    1.1276    0.0000 N   0  0  0  0  0  0           0  0  0
    2.6724    0.0103    0.0000 O   0  0  0  0  0  0           0  0  0
    0.7207    1.1172    0.0000 C   0  0  0  0  0  0           0  0  0
    1.3655    1.4966    0.0000 C   0  0  0  0  0  0           0  0  0
    1.3586    2.2483    0.0000 N   0  0  0  0  0  0           0  0  0
    0.5793    0.1966    0.0000 C   0  0  0  0  0  0           0  0  0
   -0.1414    0.0000    0.0000 N   0  0  3  0  0  0           0  0  0
    0.6172    0.9379    0.0000 C   0  0  0  0  0  0           0  0  0
    1.2034   -0.2069    0.0000 N   0  0  0  0  0  0           0  0  0
   -0.1345   -0.7517    0.0000 C   0  0  3  0  0  0           0  0  0
   -0.5483    0.6207    0.0000 C   0  0  0  0  0  0           0  0  0
   -0.0828    1.2069    0.0000 N   0  0  0  0  0  0           0  0  0
    1.2793    1.2759    0.0000 C   0  0  0  0  0  0           0  0  0
    1.8655    0.1310    0.0000 C   0  0  0  0  0  0           0  0  0
   -0.7414   -0.3069    0.0000 O   0  0  0  0  0  0           0  0  0
   -0.3655   -1.4621    0.0000 C   0  0  0  0  0  0           0  0  0
    1.9034    0.8724    0.0000 N   0  0  0  0  0  0           0  0  0
    1.3172    2.0172    0.0000 O   0  0  0  0  0  0           0  0  0
    2.4897   -0.2724    0.0000 N   0  0  0  0  0  0           0  0  0
   -1.3483   -0.7517    0.0000 C   0  0  3  0  0  0           0  0  0
   -1.1172   -1.4621    0.0000 C   0  0  3  0  0  0           0  0  0
   -1.3483    0.0034    0.0000 C   0  0  0  0  0  0           0  0  0
   -1.1207   -2.2138    0.0000 O   0  0  0  0  0  0           0  0  0
   -2.0828    0.0069    0.0000 O   0  0  0  0  0  0           0  0  0
   -2.8448    0.0138    0.0000 P   0  0  3  0  0  0           0  0  0
   -2.8483    0.7793    0.0000 O   0  0  0  0  0  0           0  0  0
   -2.8483   -0.7483    0.0000 O   0  0  0  0  0  0           0  0  0
   -2.0862    0.0138    0.0000 P   0  0  3  0  0  0           0  0  0
   -1.3241    0.0069    0.0000 O   0  0  0  0  0  0           0  0  0
   -2.0897    0.7793    0.0000 O   0  0  0  0  0  0           0  0  0
   -2.0897   -0.7483    0.0000 O   0  0  0  0  0  0           0  0  0
   -0.5897    0.0034    0.0000 C   0  0  0  0  0  0           0  0  0
   -0.5897   -0.7517    0.0000 C   0  0  3  0  0  0           0  0  0
   -0.3586   -1.4621    0.0000 C   0  0  3  0  0  0           0  0  0
    0.0172   -0.3069    0.0000 O   0  0  0  0  0  0           0  0  0
    0.3931   -1.4621    0.0000 C   0  0  0  0  0  0           0  0  0
   -0.3621   -2.2138    0.0000 O   0  0  0  0  0  0           0  0  0
    0.6241   -0.7517    0.0000 C   0  0  3  0  0  0           0  0  0
    0.6172    0.0000    0.0000 N   0  0  3  0  0  0           0  0  0
    1.2379    0.3793    0.0000 C   0  0  0  0  0  0           0  0  0
   -0.0345    0.3690    0.0000 C   0  0  0  0  0  0           0  0  0
    1.2586    1.1276    0.0000 N   0  0  0  0  0  0           0  0  0
    1.9138    0.0103    0.0000 O   0  0  0  0  0  0           0  0  0
   -0.0379    1.1172    0.0000 C   0  0  0  0  0  0           0  0  0
    0.6069    1.4966    0.0000 C   0  0  0  0  0  0           0  0  0
   -0.6931    1.4897    0.0000 C   0  0  0  0  0  0           0  0  0
    0.6000    2.2483    0.0000 O   0  0  0  0  0  0           0  0  0
    0.3586   -1.0862    0.0000 H   0  0  0  0  0  0           0  0  0
   -2.8069   -1.0931    0.0000 O   0  0  0  0  0  0           0  0  0
  2  5  1  0     0  0
  5  6  1  0     0  0
  6  7  1  0     0  0
  6  8  1  0     0  0
 20 21  1  0     0  0
 20 22  2  0     0  0
 20 23  1  0     0  0
 21 24  1  0     0  0
 21 25  1  0     0  0
 22 26  1  0     0  0
 22 27  1  0     0  0
 23 28  2  0     0  0
 24 29  1  0     0  0
 24 30  1  0     0  0
 27 31  1  0     0  0
 27 32  2  0     0  0
 28 33  1  0     0  0
 29 34  1  0     0  0
 30 35  1  0     0  0
 34 36  1  0     0  0
 35 37  1  0     0  0
 36 38  1  0     0  0
 38 39  1  0     0  0
 39 40  1  0     0  0
 39 41  2  0     0  0
 25 26  2  0     0  0
 28 31  1  0     0  0
 34 35  1  0     0  0
  7  9  1  0     0  0
  8 10  1  0     0  0
  8 11  1  0     0  0
 37 42  1  0     0  0
 39 63  1  0     0  0
 51  1  1  0     0  0
 62 11  1  0     0  0
  9 12  1  0     0  0
 12 13  1  0     0  0
 12 14  1  0     0  0
 13 15  1  0     0  0
 13 16  2  0     0  0
 14 17  2  0     0  0
 15 18  2  0     0  0
 18 19  1  0     0  0
  9 10  1  0     0  0
 17 18  1  0     0  0
  1  2  1  0     0  0
 42 43  1  0     0  0
 42 44  1  0     0  0
 42 45  2  0     0  0
 43 46  1  0     0  0
 46 47  1  0     0  0
 47 48  1  0     0  0
 47 49  1  0     0  0
 48 50  1  0     0  0
 48 51  1  0     0  0
 49 52  1  0     0  0
 52 53  1  0     0  0
 53 54  1  0     0  0
 53 55  1  0     0  0
 54 56  1  0     0  0
 54 57  2  0     0  0
 55 58  2  0     0  0
 56 59  1  0     0  0
 58 60  1  0     0  0
 59 61  2  0     0  0
 50 52  1  0     0  0
 58 59  1  0     0  0
  1  3  1  0     0  0
  1  4  2  0     0  0
M  STY  5   1 SUP   2 SUP   3 SUP   4 SUP   5 SUP
M  SLB  5   1   1   2   2   3   3   4   4   5   5
M  SAL   1 15  20  21  22  23  24  25  26  27  28  29  30  31  32  33  34
M  SAL   1  7  35  36  37  38  39  40  41
M  SBL   1  2  32  33
M  SMT   1 G
M  SBV   1  32   -0.9600    2.2300
M  SBV   1  33    0.0400   -1.1100
M  SCL   1 DNA
M  SAP   1  2  37  42 Br  39  63 Al
M  SAL   2 15  42  43  44  45  46  47  48  49  50  51  52  53  54  55  56
M  SAL   2  5  57  58  59  60  61
M  SBL   2  2  32  34
M  SMT   2 T
M  SBV   2  32    0.9600   -2.2300
M  SBV   2  34   -0.9600    2.2300
M  SCL   2 DNA
M  SAP   2  2  42  37 Al  51   1 Br
M  SAL   3  1  62
M  SBL   3  1  35
M  SMT   3 \n3'
M  SBV   3  35    0.0400   -1.1300
M  SCL   3 LGRP
M  SAL   4 15   1   2   3   4   5   6   7   8   9  10  11  12  13  14  15
M  SAL   4  4  16  17  18  19
M  SBL   4  2  34  35
M  SMT   4 C
M  SBV   4  34    0.9600   -2.2300
M  SBV   4  35   -0.0400    1.1300
M  SCL   4 DNA
M  SAP   4  2   1  51 Al  11  62 Br
M  SAL   5  1  63
M  SBL   5  1  33
M  SMT   5 \n5'
M  SBV   5  33   -0.0400    1.1100
M  SCL   5 LGRP
M  END
>  <prID>
405

>  <IDDB>
97610

>  <pIC50_HIV_Integrase>
5.045757491

>  <Q>
-17.92430799

>  <Activity_Integrase>
Inactive_Integrase

NA
NA
NA
NA
$$$$

  Accelrys05311914342D 1   1.00000     0.00000     0

 61 66  0     0  0            999 V2000
   -2.6345   -1.1172    0.0000 O   0  0  0  0  0  0           0  0  0
    0.7966   -0.7759    0.0000 C   0  0  3  0  0  0           0  0  0
    0.7897   -0.0241    0.0000 N   0  0  3  0  0  0           0  0  0
    0.1897   -0.3310    0.0000 O   0  0  0  0  0  0           0  0  0
    0.5655   -1.4862    0.0000 C   0  0  0  0  0  0           0  0  0
    1.4103    0.3552    0.0000 C   0  0  0  0  0  0           0  0  0
    0.1379    0.3448    0.0000 C   0  0  0  0  0  0           0  0  0
   -0.4172   -0.7759    0.0000 C   0  0  3  0  0  0           0  0  0
   -0.1862   -1.4862    0.0000 C   0  0  3  0  0  0           0  0  0
    1.4310    1.1034    0.0000 N   0  0  0  0  0  0           0  0  0
    2.0862   -0.0138    0.0000 O   0  0  0  0  0  0           0  0  0
    0.1310    1.0931    0.0000 C   0  0  0  0  0  0           0  0  0
   -0.4172   -0.0207    0.0000 C   0  0  0  0  0  0           0  0  0
   -0.1897   -2.2379    0.0000 O   0  0  0  0  0  0           0  0  0
    0.7793    1.4724    0.0000 C   0  0  0  0  0  0           0  0  0
   -0.5207    1.4655    0.0000 C   0  0  0  0  0  0           0  0  0
   -1.1517   -0.0172    0.0000 O   0  0  0  0  0  0           0  0  0
    0.7724    2.2241    0.0000 O   0  0  0  0  0  0           0  0  0
   -1.9138   -0.0103    0.0000 P   0  0  3  0  0  0           0  0  0
   -1.9172    0.7552    0.0000 O   0  0  0  0  0  0           0  0  0
   -1.9172   -0.7724    0.0000 O   0  0  0  0  0  0           0  0  0
   -0.9483   -2.2379    0.0000 O   0  0  0  0  0  0           0  0  0
   -0.9448   -1.4862    0.0000 C   0  0  3  0  0  0           0  0  0
   -1.1759   -0.7759    0.0000 C   0  0  3  0  0  0           0  0  0
   -0.1931   -1.4862    0.0000 C   0  0  0  0  0  0           0  0  0
   -0.5690   -0.3310    0.0000 O   0  0  0  0  0  0           0  0  0
   -1.1759   -0.0207    0.0000 C   0  0  0  0  0  0           0  0  0
    0.0379   -0.7759    0.0000 C   0  0  3  0  0  0           0  0  0
   -1.9103   -0.0172    0.0000 O   0  0  0  0  0  0           0  0  0
    0.0310   -0.0241    0.0000 N   0  0  3  0  0  0           0  0  0
   -2.6724   -0.0103    0.0000 P   0  0  3  0  0  0           0  0  0
    0.6517    0.3552    0.0000 C   0  0  0  0  0  0           0  0  0
   -0.6207    0.3448    0.0000 C   0  0  0  0  0  0           0  0  0
   -2.6759    0.7552    0.0000 O   0  0  0  0  0  0           0  0  0
   -2.6759   -0.7724    0.0000 O   0  0  0  0  0  0           0  0  0
    0.6724    1.1034    0.0000 N   0  0  0  0  0  0           0  0  0
    1.3276   -0.0138    0.0000 O   0  0  0  0  0  0           0  0  0
   -0.6241    1.0931    0.0000 C   0  0  0  0  0  0           0  0  0
    0.0207    1.4724    0.0000 C   0  0  0  0  0  0           0  0  0
    0.0138    2.2241    0.0000 N   0  0  0  0  0  0           0  0  0
    0.5310   -1.1379    0.0000 H   0  0  0  0  0  0           0  0  0
   -1.1552   -0.0103    0.0000 P   0  0  3  0  0  0           0  0  0
   -0.3931   -0.0172    0.0000 O   0  0  0  0  0  0           0  0  0
   -1.1621    0.7552    0.0000 O   0  0  0  0  0  0           0  0  0
   -1.1621   -0.7724    0.0000 O   0  0  0  0  0  0           0  0  0
    0.3379   -0.0207    0.0000 C   0  0  0  0  0  0           0  0  0
    0.3414   -0.7759    0.0000 C   0  0  3  0  0  0           0  0  0
    0.9483   -0.3310    0.0000 O   0  0  0  0  0  0           0  0  0
    0.5724   -1.4862    0.0000 C   0  0  3  0  0  0           0  0  0
    1.5552   -0.7759    0.0000 C   0  0  3  0  0  0           0  0  0
    1.3241   -1.4862    0.0000 C   0  0  0  0  0  0           0  0  0
    0.5690   -2.2379    0.0000 O   0  0  0  0  0  0           0  0  0
    1.5483   -0.0241    0.0000 N   0  0  3  0  0  0           0  0  0
    2.1690    0.3552    0.0000 C   0  0  0  0  0  0           0  0  0
    0.8966    0.3448    0.0000 C   0  0  0  0  0  0           0  0  0
    2.1897    1.1034    0.0000 N   0  0  0  0  0  0           0  0  0
    2.8448   -0.0138    0.0000 O   0  0  0  0  0  0           0  0  0
    0.8897    1.0931    0.0000 C   0  0  0  0  0  0           0  0  0
    1.5379    1.4724    0.0000 C   0  0  0  0  0  0           0  0  0
    0.2379    1.4655    0.0000 C   0  0  0  0  0  0           0  0  0
    1.5310    2.2241    0.0000 O   0  0  0  0  0  0           0  0  0
  5  9  1  0     0  0
  6 10  1  0     0  0
  6 11  2  0     0  0
  7 12  2  0     0  0
  8 13  1  0     0  0
  9 14  1  0     0  0
 10 15  1  0     0  0
 29 31  1  0     0  0
 30 32  1  0     0  0
 30 33  1  0     0  0
 31 34  1  0     0  0
 31 35  2  0     0  0
 32 36  1  0     0  0
 32 37  2  0     0  0
 33 38  2  0     0  0
 36 39  2  0     0  0
 39 40  1  0     0  0
 26 28  1  0     0  0
 38 39  1  0     0  0
 22 23  1  0     0  0
 23 24  1  0     0  0
 23 25  1  0     0  0
 24 26  1  0     0  0
 24 27  1  0     0  0
 25 28  1  0     0  0
 27 29  1  0     0  0
 28 30  1  0     0  0
 12 16  1  0     0  0
 13 17  1  0     0  0
 15 18  2  0     0  0
 17 19  1  0     0  0
 19 20  1  0     0  0
 19 21  2  0     0  0
  8  9  1  0     0  0
 12 15  1  0     0  0
 41 52  1  0     0  0
 14 42  1  0     0  0
 19 22  1  0     0  0
 31  1  1  0     0  0
  2  3  1  0     0  0
  2  4  1  0     0  0
  2  5  1  0     0  0
  3  6  1  0     0  0
  3  7  1  0     0  0
  4  8  1  0     0  0
 42 43  1  0     0  0
 42 44  1  0     0  0
 42 45  2  0     0  0
 43 46  1  0     0  0
 46 47  1  0     0  0
 47 48  1  0     0  0
 47 49  1  0     0  0
 48 50  1  0     0  0
 49 51  1  0     0  0
 49 52  1  0     0  0
 50 53  1  0     0  0
 53 54  1  0     0  0
 53 55  1  0     0  0
 54 56  1  0     0  0
 54 57  2  0     0  0
 55 58  2  0     0  0
 56 59  1  0     0  0
 58 60  1  0     0  0
 59 61  2  0     0  0
 50 51  1  0     0  0
 58 59  1  0     0  0
M  STY  5   1 SUP   2 SUP   3 SUP   4 SUP   5 SUP
M  SLB  5   1   1   2   2   3   3   4   4   5   5
M  SAL   1  1   1
M  SBL   1  1  39
M  SMT   1 \n5'
M  SBV   1  39   -0.0400    1.1100
M  SCL   1 LGRP
M  SAL   2 15   2   3   4   5   6   7   8   9  10  11  12  13  14  15  16
M  SAL   2  5  17  18  19  20  21
M  SBL   2  2  37  38
M  SMT   2 T
M  SBV   2  37   -0.9600    2.2300
M  SBV   2  38    0.9700   -2.2300
M  SCL   2 DNA
M  SAP   2  2  14  42 Br  19  22 Al
M  SAL   3  1  41
M  SBL   3  1  36
M  SMT   3 \n3'
M  SBV   3  36    0.0400   -1.1000
M  SCL   3 LGRP
M  SAL   4 15  22  23  24  25  26  27  28  29  30  31  32  33  34  35  36
M  SAL   4  4  37  38  39  40
M  SBL   4  2  38  39
M  SMT   4 C
M  SBV   4  38   -0.9700    2.2300
M  SBV   4  39    0.0400   -1.1100
M  SCL   4 DNA
M  SAP   4  2  22  19 Br  31   1 Al
M  SAL   5 15  42  43  44  45  46  47  48  49  50  51  52  53  54  55  56
M  SAL   5  5  57  58  59  60  61
M  SBL   5  2  36  37
M  SMT   5 T
M  SBV   5  37    0.9600   -2.2300
M  SBV   5  36   -0.0400    1.1000
M  SCL   5 DNA
M  SAP   5  2  42  14 Al  52  41 Br
M  END
>  <prID>
406

>  <IDDB>
97613

>  <pIC50_HIV_Integrase>
4.886056648

>  <Q>
-16.38744028

>  <Activity_Integrase>
Inactive_Integrase

NA
NA
NA
NA
$$$$

  Accelrys05311914302D 1   1.00000     0.00000     0

 24 27  0     0  0            999 V2000
    3.5541   -1.1125    0.0000 C   0  0  0  0  0  0           0  0  0
    2.8375   -0.6916    0.0000 C   0  0  0  0  0  0           0  0  0
    2.1166   -1.1041    0.0000 C   0  0  0  0  0  0           0  0  0
    3.5500   -1.9375    0.0000 O   0  0  0  0  0  0           0  0  0
    1.4000   -0.6958    0.0000 C   0  0  0  0  0  0           0  0  0
    0.6916   -1.1083    0.0000 C   0  0  0  0  0  0           0  0  0
   -0.0250   -0.6958    0.0000 C   0  0  0  0  0  0           0  0  0
    2.8084    0.1583    0.0000 C   0  0  0  0  0  0           0  0  0
    2.1208    0.5542    0.0000 C   0  0  0  0  0  0           0  0  0
    1.4000    0.1334    0.0000 C   0  0  0  0  0  0           0  0  0
   -0.7375   -1.1083    0.0000 C   0  0  0  0  0  0           0  0  0
   -0.0250    0.1292    0.0000 C   0  0  0  0  0  0           0  0  0
   -1.4500   -0.7000    0.0000 C   0  0  0  0  0  0           0  0  0
   -0.7417    0.5417    0.0000 C   0  0  0  0  0  0           0  0  0
   -1.4542    0.1250    0.0000 C   0  0  0  0  0  0           0  0  0
    3.5208    0.5750    0.0000 O   0  0  0  0  0  0           0  0  0
    4.2318    0.1625    0.0000 C   0  0  0  0  0  0           0  0  0
    4.2750   -0.7000    0.0000 C   0  0  0  0  0  0           0  0  0
    5.0423   -1.0920    0.0000 C   0  0  0  0  0  0           0  0  0
    5.7669   -0.6227    0.0000 C   0  0  0  0  0  0           0  0  0
    5.7194    0.2428    0.0000 C   0  0  0  0  0  0           0  0  0
    4.9517    0.6309    0.0000 C   0  0  0  0  0  0           0  0  0
    5.0375   -1.9167    0.0000 O   0  0  0  0  0  0           0  0  0
    6.4792   -1.0333    0.0000 O   0  0  0  0  0  0           0  0  0
  9  8  2  0     0  0
 10  9  1  0     0  0
 11  7  1  0     0  0
 12  7  2  0     0  0
 13 11  2  0     0  0
 14 12  1  0     0  0
 15 13  1  0     0  0
 10  5  2  0     0  0
 15 14  2  0     0  0
  8 16  1  0     0  0
 16 17  1  0     0  0
  1 18  1  0     0  0
  2  1  1  0     0  0
 17 18  2  0     0  0
  3  2  2  0     0  0
 18 19  1  0     0  0
  4  1  2  0     0  0
 19 20  2  0     0  0
  5  3  1  0     0  0
 20 21  1  0     0  0
  6  5  1  0     0  0
 21 22  2  0     0  0
 22 17  1  0     0  0
  7  6  1  0     0  0
 19 23  1  0     0  0
  8  2  1  0     0  0
 20 24  1  0     0  0
M  END
>  <prID>
407

>  <IDDB>
104313

>  <pIC50_HIV_Integrase>
6.22184875

>  <Q>
-0.452785201

>  <Activity_Integrase>
Active_Integrase

NA
NA
NA
NA
$$$$

  Accelrys05311914302D 1   1.00000     0.00000     0

 60 65  0     0  0            999 V2000
   -1.7292   -2.8959    0.0000 C   0  0  0  0  0  0           0  0  0
    6.7250   -2.8666    0.0000 C   0  0  0  0  0  0           0  0  0
   -2.4292   -3.3042    0.0000 S   0  0  3  0  0  0           0  0  0
    7.4292   -3.2791    0.0000 S   0  0  3  0  0  0           0  0  0
    6.7208   -2.0542    0.0000 C   0  0  0  0  0  0           0  0  0
   -1.7250   -2.0750    0.0000 C   0  0  0  0  0  0           0  0  0
   -2.4292   -1.6750    0.0000 N   0  0  0  0  0  0           0  0  0
    7.4250   -1.6500    0.0000 N   0  0  0  0  0  0           0  0  0
   -1.0208   -1.6750    0.0000 C   0  0  0  0  0  0           0  0  0
    6.0208   -1.6541    0.0000 C   0  0  0  0  0  0           0  0  0
    6.0208   -3.2791    0.0000 C   0  0  0  0  0  0           0  0  0
   -1.0208   -3.3042    0.0000 C   0  0  0  0  0  0           0  0  0
   -0.3167   -2.8917    0.0000 C   0  0  0  0  0  0           0  0  0
    5.3167   -2.8666    0.0000 C   0  0  0  0  0  0           0  0  0
    2.5041   -2.8833    0.0000 C   0  0  0  0  0  0           0  0  0
   -0.3167   -2.0750    0.0000 C   0  0  0  0  0  0           0  0  0
    5.3209   -2.0625    0.0000 C   0  0  0  0  0  0           0  0  0
   -2.4292   -0.8625    0.0000 N   0  0  0  0  0  0           0  0  0
    7.4209   -0.8333    0.0000 N   0  0  0  0  0  0           0  0  0
    3.2166   -3.2917    0.0000 N   0  0  0  0  0  0           0  0  0
    1.8042   -3.2958    0.0000 N   0  0  0  0  0  0           0  0  0
   -2.0667   -4.1500    0.0000 O   0  0  0  0  0  0           0  0  0
    8.0792   -2.5917    0.0000 O   0  0  0  0  0  0           0  0  0
    6.8000   -3.9041    0.0000 O   0  0  0  0  0  0           0  0  0
   -2.8084   -2.5041    0.0000 O   0  0  0  0  0  0           0  0  0
   -5.9459    1.9917    0.0000 C   0  0  0  0  0  0           0  0  0
   10.9167    2.0505    0.0000 C   0  0  0  0  0  0           0  0  0
   10.2250    1.6333    0.0000 C   0  0  0  0  0  0           0  0  0
   -5.2458    1.5792    0.0000 C   0  0  0  0  0  0           0  0  0
    0.3875   -1.6708    0.0000 C   0  0  0  0  0  0           0  0  0
    4.6083   -1.6541    0.0000 C   0  0  0  0  0  0           0  0  0
   -5.2458    0.7667    0.0000 C   0  0  0  0  0  0           0  0  0
   10.2375    0.8083    0.0000 C   0  0  0  0  0  0           0  0  0
    0.3916   -3.3000    0.0000 C   0  0  0  0  0  0           0  0  0
    4.6166   -3.2917    0.0000 C   0  0  0  0  0  0           0  0  0
    3.9209   -2.8792    0.0000 C   0  0  0  0  0  0           0  0  0
    1.1000   -2.8833    0.0000 C   0  0  0  0  0  0           0  0  0
    2.5041   -2.0708    0.0000 O   0  0  0  0  0  0           0  0  0
   -3.1583   -3.6500    0.0000 O   0  0  0  0  0  0           0  0  0
    8.1125   -3.7458    0.0000 O   0  0  0  0  0  0           0  0  0
   -5.9459    2.8166    0.0000 O   0  0  0  0  0  0           0  0  0
   10.8961    2.8627    0.0000 O   0  0  0  0  0  0           0  0  0
   -3.1375   -0.4542    0.0000 C   0  0  0  0  0  0           0  0  0
    8.1250   -0.4209    0.0000 C   0  0  0  0  0  0           0  0  0
    6.0167   -0.8417    0.0000 O   0  0  0  0  0  0           0  0  0
   -1.0250   -0.8625    0.0000 O   0  0  0  0  0  0           0  0  0
   -4.5417    0.3625    0.0000 C   0  0  0  0  0  0           0  0  0
    9.5250    0.4000    0.0000 C   0  0  0  0  0  0           0  0  0
    3.9083   -2.0708    0.0000 C   0  0  0  0  0  0           0  0  0
    1.0917   -2.0708    0.0000 C   0  0  0  0  0  0           0  0  0
   11.6332    1.6554    0.0000 O   0  0  0  0  0  0           0  0  0
   -6.6542    1.5875    0.0000 O   0  0  0  0  0  0           0  0  0
    8.8250   -0.8250    0.0000 C   0  0  0  0  0  0           0  0  0
    8.1166    0.3959    0.0000 C   0  0  0  0  0  0           0  0  0
   -3.8375   -0.8625    0.0000 C   0  0  0  0  0  0           0  0  0
   -3.1333    0.3625    0.0000 C   0  0  0  0  0  0           0  0  0
    9.5334   -0.4167    0.0000 C   0  0  0  0  0  0           0  0  0
    8.8167    0.8000    0.0000 C   0  0  0  0  0  0           0  0  0
   -4.5417   -0.4583    0.0000 C   0  0  0  0  0  0           0  0  0
   -3.8375    0.7750    0.0000 C   0  0  0  0  0  0           0  0  0
  2 11  1  0     0  0
  3  1  1  0     0  0
  4  2  1  0     0  0
  5 10  1  0     0  0
  6  1  2  0     0  0
  7  6  1  0     0  0
  8  5  1  0     0  0
  9  6  1  0     0  0
 10 17  2  0     0  0
 11 14  2  0     0  0
 12  1  1  0     0  0
 13 12  2  0     0  0
 14 35  1  0     0  0
 15 21  1  0     0  0
 16  9  2  0     0  0
 17 31  1  0     0  0
 18  7  2  0     0  0
 19  8  2  0     0  0
 20 15  1  0     0  0
 21 37  1  0     0  0
 22  3  2  0     0  0
 23  4  2  0     0  0
 24  4  2  0     0  0
 25  3  2  0     0  0
 26 29  1  0     0  0
 27 28  1  0     0  0
 28 33  2  0     0  0
 29 32  2  0     0  0
 30 16  1  0     0  0
 31 49  2  0     0  0
 32 47  1  0     0  0
 33 48  1  0     0  0
 34 13  1  0     0  0
 35 36  2  0     0  0
 36 20  1  0     0  0
 37 34  2  0     0  0
 38 15  2  0     0  0
 39  3  1  0     0  0
 40  4  1  0     0  0
 41 26  2  0     0  0
 42 27  2  0     0  0
 43 18  1  0     0  0
 44 19  1  0     0  0
 45 10  1  0     0  0
 46  9  1  0     0  0
 47 59  1  0     0  0
 48 58  1  0     0  0
 49 36  1  0     0  0
 50 30  2  0     0  0
 51 27  1  0     0  0
 52 26  1  0     0  0
 53 44  2  0     0  0
 54 44  1  0     0  0
 55 43  1  0     0  0
 56 43  2  0     0  0
 57 53  1  0     0  0
 58 54  2  0     0  0
 59 55  2  0     0  0
 60 56  1  0     0  0
 16 13  1  0     0  0
 50 37  1  0     0  0
 47 60  2  0     0  0
 17 14  1  0     0  0
  5  2  2  0     0  0
 48 57  2  0     0  0
M  END
>  <prID>
408

>  <IDDB>
104359

>  <pIC50_HIV_Integrase>
6

>  <Q>
-5.57683258

>  <Activity_Integrase>
Inactive_Integrase

NA
NA
NA
NA
$$$$

  Accelrys05311914302D 1   1.00000     0.00000     0

 58 63  0     0  0            999 V2000
   -3.0583   -1.0750    0.0000 C   0  0  0  0  0  0           0  0  0
    3.0792   -1.0500    0.0000 C   0  0  0  0  0  0           0  0  0
   -3.5625   -1.3625    0.0000 S   0  0  3  0  0  0           0  0  0
    3.5958   -1.3417    0.0000 S   0  0  3  0  0  0           0  0  0
    3.0708   -0.4542    0.0000 C   0  0  0  0  0  0           0  0  0
   -3.0583   -0.4875    0.0000 C   0  0  0  0  0  0           0  0  0
   -3.5750   -0.1917    0.0000 N   0  0  0  0  0  0           0  0  0
    3.5792   -0.1542    0.0000 N   0  0  0  0  0  0           0  0  0
   -2.5583   -0.2000    0.0000 C   0  0  0  0  0  0           0  0  0
    2.5583   -0.1583    0.0000 C   0  0  0  0  0  0           0  0  0
    2.5583   -1.3500    0.0000 C   0  0  0  0  0  0           0  0  0
   -2.5500   -1.3625    0.0000 C   0  0  0  0  0  0           0  0  0
   -2.0458   -1.0708    0.0000 C   0  0  0  0  0  0           0  0  0
    2.0458   -1.0583    0.0000 C   0  0  0  0  0  0           0  0  0
   -0.0083   -1.0583    0.0000 C   0  0  0  0  0  0           0  0  0
   -2.0500   -0.4833    0.0000 C   0  0  0  0  0  0           0  0  0
    2.0458   -0.4583    0.0000 C   0  0  0  0  0  0           0  0  0
   -3.5750    0.4042    0.0000 N   0  0  0  0  0  0           0  0  0
    3.5792    0.4417    0.0000 N   0  0  0  0  0  0           0  0  0
    0.5083   -1.3583    0.0000 N   0  0  0  0  0  0           0  0  0
   -0.5208   -1.3583    0.0000 N   0  0  0  0  0  0           0  0  0
   -3.3417   -2.0208    0.0000 O   0  0  0  0  0  0           0  0  0
    4.0167   -0.9167    0.0000 O   0  0  0  0  0  0           0  0  0
    3.1375   -1.8417    0.0000 O   0  0  0  0  0  0           0  0  0
   -3.8417   -0.7375    0.0000 O   0  0  0  0  0  0           0  0  0
   -1.5458   -0.1958    0.0000 C   0  0  0  0  0  0           0  0  0
    1.5250   -0.1667    0.0000 C   0  0  0  0  0  0           0  0  0
   -5.6333    2.1833    0.0000 C   0  0  0  0  0  0           0  0  0
    5.6167    2.2458    0.0000 C   0  0  0  0  0  0           0  0  0
    1.5375   -1.3542    0.0000 C   0  0  0  0  0  0           0  0  0
   -1.5417   -1.3583    0.0000 C   0  0  0  0  0  0           0  0  0
   -1.0417   -1.0667    0.0000 C   0  0  0  0  0  0           0  0  0
    1.0208   -1.0583    0.0000 C   0  0  0  0  0  0           0  0  0
   -0.0125   -0.4667    0.0000 O   0  0  0  0  0  0           0  0  0
   -4.1208   -1.7000    0.0000 O   0  0  0  0  0  0           0  0  0
    4.1042   -1.6708    0.0000 O   0  0  0  0  0  0           0  0  0
   -6.1375    2.4833    0.0000 O   0  0  0  0  0  0           0  0  0
    6.1375    2.5500    0.0000 O   0  0  0  0  0  0           0  0  0
   -4.0875    0.7000    0.0000 C   0  0  0  0  0  0           0  0  0
    4.0958    0.7417    0.0000 C   0  0  0  0  0  0           0  0  0
    2.5500    0.4333    0.0000 O   0  0  0  0  0  0           0  0  0
   -2.5583    0.3833    0.0000 O   0  0  0  0  0  0           0  0  0
   -5.6333    1.5958    0.0000 C   0  0  0  0  0  0           0  0  0
    5.6292    1.6500    0.0000 C   0  0  0  0  0  0           0  0  0
   -1.0417   -0.4792    0.0000 C   0  0  0  0  0  0           0  0  0
    1.0167   -0.4667    0.0000 C   0  0  0  0  0  0           0  0  0
    5.1167    1.3458    0.0000 C   0  0  0  0  0  0           0  0  0
   -5.1167    1.2958    0.0000 C   0  0  0  0  0  0           0  0  0
    5.1042    2.5417    0.0000 O   0  0  0  0  0  0           0  0  0
   -5.1208    2.4833    0.0000 O   0  0  0  0  0  0           0  0  0
   -4.6000    0.4000    0.0000 C   0  0  0  0  0  0           0  0  0
    4.6083    0.4500    0.0000 C   0  0  0  0  0  0           0  0  0
    4.0833    1.3375    0.0000 C   0  0  0  0  0  0           0  0  0
   -4.0875    1.2958    0.0000 C   0  0  0  0  0  0           0  0  0
   -4.6000    1.5958    0.0000 C   0  0  0  0  0  0           0  0  0
    5.1167    0.7500    0.0000 C   0  0  0  0  0  0           0  0  0
    4.5958    1.6417    0.0000 C   0  0  0  0  0  0           0  0  0
   -5.1167    0.6958    0.0000 C   0  0  0  0  0  0           0  0  0
  2 11  1  0     0  0
  3  1  1  0     0  0
  4  2  1  0     0  0
  5 10  1  0     0  0
  6  1  2  0     0  0
  7  6  1  0     0  0
  8  5  1  0     0  0
  9  6  1  0     0  0
 10 17  2  0     0  0
 11 14  2  0     0  0
 12  1  1  0     0  0
 13 12  2  0     0  0
 14 30  1  0     0  0
 15 21  1  0     0  0
 16 13  1  0     0  0
 17 27  1  0     0  0
 18  7  2  0     0  0
 19  8  2  0     0  0
 20 15  1  0     0  0
 21 32  1  0     0  0
 22  3  2  0     0  0
 23  4  2  0     0  0
 24  4  2  0     0  0
 25  3  2  0     0  0
 26 16  1  0     0  0
 27 46  2  0     0  0
 28 43  1  0     0  0
 29 44  1  0     0  0
 30 33  2  0     0  0
 31 13  1  0     0  0
 32 31  2  0     0  0
 33 20  1  0     0  0
 34 15  2  0     0  0
 35  3  1  0     0  0
 36  4  1  0     0  0
 37 28  2  0     0  0
 38 29  2  0     0  0
 39 18  1  0     0  0
 40 19  1  0     0  0
 41 10  1  0     0  0
 42  9  1  0     0  0
 43 48  1  0     0  0
 44 47  1  0     0  0
 45 26  2  0     0  0
 46 33  1  0     0  0
 47 57  1  0     0  0
 48 58  1  0     0  0
 49 29  1  0     0  0
 50 28  1  0     0  0
 51 39  1  0     0  0
 52 40  2  0     0  0
 53 40  1  0     0  0
 54 39  2  0     0  0
 55 54  1  0     0  0
 56 52  1  0     0  0
 57 53  2  0     0  0
 58 51  2  0     0  0
 16  9  2  0     0  0
 32 45  1  0     0  0
 48 55  2  0     0  0
 17 14  1  0     0  0
  5  2  2  0     0  0
 47 56  2  0     0  0
M  END
>  <prID>
409

>  <IDDB>
104384

>  <pIC50_HIV_Integrase>
6.15490196

>  <Q>
-6.804576404

>  <Activity_Integrase>
Active_Integrase

NA
NA
NA
NA
$$$$

  Accelrys05311914302D 1   1.00000     0.00000     0

 62 67  0     0  0            999 V2000
   -3.0542   -0.9792    0.0000 C   0  0  0  0  0  0           0  0  0
    3.0708   -0.9583    0.0000 C   0  0  0  0  0  0           0  0  0
   -3.5583   -1.2750    0.0000 S   0  0  3  0  0  0           0  0  0
    3.5875   -1.2542    0.0000 S   0  0  3  0  0  0           0  0  0
    3.0667   -0.3625    0.0000 C   0  0  0  0  0  0           0  0  0
   -3.0542   -0.4000    0.0000 C   0  0  0  0  0  0           0  0  0
   -3.5667   -0.1000    0.0000 N   0  0  0  0  0  0           0  0  0
    3.5792   -0.0625    0.0000 N   0  0  0  0  0  0           0  0  0
   -4.0833    1.3833    0.0000 C   0  0  0  0  0  0           0  0  0
    4.0792    1.4208    0.0000 C   0  0  0  0  0  0           0  0  0
    2.5500   -0.0750    0.0000 C   0  0  0  0  0  0           0  0  0
   -2.5500   -0.1083    0.0000 C   0  0  0  0  0  0           0  0  0
   -2.5500   -1.2750    0.0000 C   0  0  0  0  0  0           0  0  0
    2.5583   -1.2583    0.0000 C   0  0  0  0  0  0           0  0  0
    4.0875    0.8333    0.0000 C   0  0  0  0  0  0           0  0  0
   -4.0833    0.7875    0.0000 C   0  0  0  0  0  0           0  0  0
   -2.0458   -0.9792    0.0000 C   0  0  0  0  0  0           0  0  0
    2.0417   -0.9625    0.0000 C   0  0  0  0  0  0           0  0  0
   -3.5667    0.4917    0.0000 N   0  0  0  0  0  0           0  0  0
    3.5792    0.5292    0.0000 N   0  0  0  0  0  0           0  0  0
   -0.0083   -0.9708    0.0000 C   0  0  0  0  0  0           0  0  0
    2.0417   -0.3708    0.0000 C   0  0  0  0  0  0           0  0  0
   -2.0458   -0.3958    0.0000 C   0  0  0  0  0  0           0  0  0
   -3.5625    1.6792    0.0000 C   0  0  0  0  0  0           0  0  0
    3.5583    1.7167    0.0000 C   0  0  0  0  0  0           0  0  0
   -5.6208    0.4833    0.0000 C   0  0  0  0  0  0           0  0  0
    5.6292    0.5458    0.0000 C   0  0  0  0  0  0           0  0  0
    5.1167    0.8417    0.0000 C   0  0  0  0  0  0           0  0  0
   -5.1083    0.7833    0.0000 C   0  0  0  0  0  0           0  0  0
    4.5875    1.7250    0.0000 C   0  0  0  0  0  0           0  0  0
   -4.6000    1.6792    0.0000 C   0  0  0  0  0  0           0  0  0
   -4.6000    0.4917    0.0000 C   0  0  0  0  0  0           0  0  0
    4.6000    0.5417    0.0000 C   0  0  0  0  0  0           0  0  0
    0.5042   -1.2667    0.0000 N   0  0  0  0  0  0           0  0  0
   -0.5208   -1.2708    0.0000 N   0  0  0  0  0  0           0  0  0
   -3.3417   -1.9292    0.0000 O   0  0  0  0  0  0           0  0  0
   -3.8417   -0.6458    0.0000 O   0  0  0  0  0  0           0  0  0
    4.0125   -0.8292    0.0000 O   0  0  0  0  0  0           0  0  0
    3.1333   -1.7500    0.0000 O   0  0  0  0  0  0           0  0  0
   -1.5458   -0.1042    0.0000 C   0  0  0  0  0  0           0  0  0
    1.5208   -0.0792    0.0000 C   0  0  0  0  0  0           0  0  0
    1.5333   -1.2625    0.0000 C   0  0  0  0  0  0           0  0  0
   -1.5417   -1.2708    0.0000 C   0  0  0  0  0  0           0  0  0
   -1.0417   -0.9792    0.0000 C   0  0  0  0  0  0           0  0  0
    1.0167   -0.9667    0.0000 C   0  0  0  0  0  0           0  0  0
   -0.0125   -0.3792    0.0000 O   0  0  0  0  0  0           0  0  0
    5.1083    1.4333    0.0000 C   0  0  0  0  0  0           0  0  0
   -5.1083    1.3833    0.0000 C   0  0  0  0  0  0           0  0  0
    4.0792   -1.5708    0.0000 O   0  0  0  0  0  0           0  0  0
   -4.1125   -1.6083    0.0000 O   0  0  0  0  0  0           0  0  0
    3.5583    2.3083    0.0000 O   0  0  0  0  0  0           0  0  0
   -3.5625    2.2708    0.0000 O   0  0  0  0  0  0           0  0  0
   -5.6208   -0.1083    0.0000 O   0  0  0  0  0  0           0  0  0
    5.6375   -0.0458    0.0000 O   0  0  0  0  0  0           0  0  0
   -2.5542    0.4750    0.0000 O   0  0  0  0  0  0           0  0  0
    2.5458    0.5208    0.0000 O   0  0  0  0  0  0           0  0  0
    1.0125   -0.3792    0.0000 C   0  0  0  0  0  0           0  0  0
   -1.0417   -0.3917    0.0000 C   0  0  0  0  0  0           0  0  0
    3.0500    1.4125    0.0000 O   0  0  0  0  0  0           0  0  0
   -3.0500    1.3792    0.0000 O   0  0  0  0  0  0           0  0  0
    6.1375    0.8458    0.0000 O   0  0  0  0  0  0           0  0  0
   -6.1333    0.7833    0.0000 O   0  0  0  0  0  0           0  0  0
  2 14  1  0     0  0
  3  1  1  0     0  0
  4  2  1  0     0  0
  5 11  1  0     0  0
  6  1  2  0     0  0
  7  6  1  0     0  0
  8  5  1  0     0  0
  9 16  2  0     0  0
 10 15  1  0     0  0
 11 22  2  0     0  0
 12  6  1  0     0  0
 13  1  1  0     0  0
 14 18  2  0     0  0
 15 20  1  0     0  0
 16 19  1  0     0  0
 17 13  2  0     0  0
 18 42  1  0     0  0
 19  7  2  0     0  0
 20  8  2  0     0  0
 21 35  1  0     0  0
 22 41  1  0     0  0
 23 12  2  0     0  0
 24  9  1  0     0  0
 25 10  1  0     0  0
 26 29  1  0     0  0
 27 28  1  0     0  0
 28 33  1  0     0  0
 29 32  2  0     0  0
 30 10  2  0     0  0
 31  9  1  0     0  0
 32 16  1  0     0  0
 33 15  2  0     0  0
 34 21  1  0     0  0
 35 44  1  0     0  0
 36  3  2  0     0  0
 37  3  2  0     0  0
 38  4  2  0     0  0
 39  4  2  0     0  0
 40 23  1  0     0  0
 41 57  2  0     0  0
 42 45  2  0     0  0
 43 17  1  0     0  0
 44 43  2  0     0  0
 45 34  1  0     0  0
 46 21  2  0     0  0
 47 28  2  0     0  0
 48 29  1  0     0  0
 49  4  1  0     0  0
 50  3  1  0     0  0
 51 25  2  0     0  0
 52 24  2  0     0  0
 53 26  2  0     0  0
 54 27  2  0     0  0
 55 12  1  0     0  0
 56 11  1  0     0  0
 57 45  1  0     0  0
 58 40  2  0     0  0
 59 25  1  0     0  0
 60 24  1  0     0  0
 61 27  1  0     0  0
 62 26  1  0     0  0
 23 17  1  0     0  0
 58 44  1  0     0  0
 48 31  2  0     0  0
 22 18  1  0     0  0
  5  2  2  0     0  0
 47 30  1  0     0  0
M  END
>  <prID>
410

>  <IDDB>
104386

>  <pIC50_HIV_Integrase>
5.698970004

>  <Q>
-7.97116869

>  <Activity_Integrase>
Inactive_Integrase

NA
NA
NA
NA
$$$$

  Accelrys05311914302D 1   1.00000     0.00000     0

 62 67  0     0  0            999 V2000
   -3.3333   -1.4292    0.0000 C   0  0  0  0  0  0           0  0  0
    3.3542   -1.4042    0.0000 C   0  0  0  0  0  0           0  0  0
   -3.8833   -1.7458    0.0000 S   0  0  3  0  0  0           0  0  0
    3.9167   -1.7250    0.0000 S   0  0  3  0  0  0           0  0  0
    3.3500   -0.7542    0.0000 C   0  0  0  0  0  0           0  0  0
   -3.3333   -0.7958    0.0000 C   0  0  0  0  0  0           0  0  0
   -3.8958   -0.4667    0.0000 N   0  0  0  0  0  0           0  0  0
    3.9083   -0.4250    0.0000 N   0  0  0  0  0  0           0  0  0
   -2.7833   -0.4750    0.0000 C   0  0  0  0  0  0           0  0  0
    2.7875   -0.4375    0.0000 C   0  0  0  0  0  0           0  0  0
    2.7958   -1.7292    0.0000 C   0  0  0  0  0  0           0  0  0
   -2.7833   -1.7458    0.0000 C   0  0  0  0  0  0           0  0  0
   -2.2333   -1.4250    0.0000 C   0  0  0  0  0  0           0  0  0
    2.2333   -1.4083    0.0000 C   0  0  0  0  0  0           0  0  0
   -0.0083   -1.4167    0.0000 C   0  0  0  0  0  0           0  0  0
   -2.2333   -0.7958    0.0000 C   0  0  0  0  0  0           0  0  0
    2.2333   -0.7625    0.0000 C   0  0  0  0  0  0           0  0  0
   -3.8958    0.1833    0.0000 N   0  0  0  0  0  0           0  0  0
    3.9000    0.2208    0.0000 N   0  0  0  0  0  0           0  0  0
    0.5542   -1.7375    0.0000 N   0  0  0  0  0  0           0  0  0
   -0.5667   -1.7458    0.0000 N   0  0  0  0  0  0           0  0  0
   -3.6458   -2.4625    0.0000 O   0  0  0  0  0  0           0  0  0
    4.3792   -1.2625    0.0000 O   0  0  0  0  0  0           0  0  0
    3.4208   -2.2667    0.0000 O   0  0  0  0  0  0           0  0  0
   -4.1875   -1.0583    0.0000 O   0  0  0  0  0  0           0  0  0
   -1.6833   -0.4708    0.0000 C   0  0  0  0  0  0           0  0  0
    1.6625   -0.4375    0.0000 C   0  0  0  0  0  0           0  0  0
   -1.6833   -1.7417    0.0000 C   0  0  0  0  0  0           0  0  0
    1.6750   -1.7375    0.0000 C   0  0  0  0  0  0           0  0  0
   -5.5792    3.0958    0.0000 C   0  0  0  0  0  0           0  0  0
    5.5583    3.1542    0.0000 C   0  0  0  0  0  0           0  0  0
    1.1167   -1.4125    0.0000 C   0  0  0  0  0  0           0  0  0
   -1.1333   -1.4208    0.0000 C   0  0  0  0  0  0           0  0  0
   -0.0125   -0.7708    0.0000 O   0  0  0  0  0  0           0  0  0
    4.4542   -2.0750    0.0000 O   0  0  0  0  0  0           0  0  0
   -4.4875   -2.1125    0.0000 O   0  0  0  0  0  0           0  0  0
   -6.1375    3.4208    0.0000 O   0  0  0  0  0  0           0  0  0
    6.1167    3.4833    0.0000 O   0  0  0  0  0  0           0  0  0
   -4.4542    0.5042    0.0000 C   0  0  0  0  0  0           0  0  0
    4.4583    0.5500    0.0000 C   0  0  0  0  0  0           0  0  0
    2.7833    0.2125    0.0000 O   0  0  0  0  0  0           0  0  0
   -2.7833    0.1625    0.0000 O   0  0  0  0  0  0           0  0  0
    1.1083   -0.7708    0.0000 C   0  0  0  0  0  0           0  0  0
   -1.1375   -0.7833    0.0000 C   0  0  0  0  0  0           0  0  0
    4.9958    3.4750    0.0000 O   0  0  0  0  0  0           0  0  0
   -5.0208    3.4208    0.0000 O   0  0  0  0  0  0           0  0  0
    5.5792    1.2083    0.0000 C   0  0  0  0  0  0           0  0  0
   -5.5792    1.1500    0.0000 C   0  0  0  0  0  0           0  0  0
   -5.0125    0.1792    0.0000 C   0  0  0  0  0  0           0  0  0
   -4.4542    1.1500    0.0000 C   0  0  0  0  0  0           0  0  0
    5.0250    0.2333    0.0000 C   0  0  0  0  0  0           0  0  0
    4.4542    1.2000    0.0000 C   0  0  0  0  0  0           0  0  0
   -5.5792    0.5000    0.0000 C   0  0  0  0  0  0           0  0  0
   -5.0125    1.4750    0.0000 C   0  0  0  0  0  0           0  0  0
    5.5833    0.5625    0.0000 C   0  0  0  0  0  0           0  0  0
    5.0083    1.5292    0.0000 C   0  0  0  0  0  0           0  0  0
    5.5625    2.5042    0.0000 C   0  0  0  0  0  0           0  0  0
   -5.5792    2.4458    0.0000 C   0  0  0  0  0  0           0  0  0
   -6.1375    2.1208    0.0000 C   0  0  0  0  0  0           0  0  0
    6.1333    2.1875    0.0000 C   0  0  0  0  0  0           0  0  0
    6.1375    1.5417    0.0000 C   0  0  0  0  0  0           0  0  0
   -6.1333    1.4750    0.0000 C   0  0  0  0  0  0           0  0  0
  2 11  1  0     0  0
  3  1  1  0     0  0
  4  2  1  0     0  0
  5 10  1  0     0  0
  6  1  2  0     0  0
  7  6  1  0     0  0
  8  5  1  0     0  0
  9  6  1  0     0  0
 10 17  2  0     0  0
 11 14  2  0     0  0
 12  1  1  0     0  0
 13 12  2  0     0  0
 14 29  1  0     0  0
 15 21  1  0     0  0
 16  9  2  0     0  0
 17 27  1  0     0  0
 18  7  2  0     0  0
 19  8  2  0     0  0
 20 15  1  0     0  0
 21 33  1  0     0  0
 22  3  2  0     0  0
 23  4  2  0     0  0
 24  4  2  0     0  0
 25  3  2  0     0  0
 26 16  1  0     0  0
 27 43  2  0     0  0
 28 13  1  0     0  0
 29 32  2  0     0  0
 30 58  1  0     0  0
 31 57  1  0     0  0
 32 20  1  0     0  0
 33 28  2  0     0  0
 34 15  2  0     0  0
 35  4  1  0     0  0
 36  3  1  0     0  0
 37 30  2  0     0  0
 38 31  2  0     0  0
 39 18  1  0     0  0
 40 19  1  0     0  0
 41 10  1  0     0  0
 42  9  1  0     0  0
 43 32  1  0     0  0
 44 26  2  0     0  0
 45 31  1  0     0  0
 46 30  1  0     0  0
 47 56  1  0     0  0
 48 53  1  0     0  0
 49 39  1  0     0  0
 50 39  2  0     0  0
 51 40  2  0     0  0
 52 40  1  0     0  0
 53 49  2  0     0  0
 54 50  1  0     0  0
 55 51  1  0     0  0
 56 52  2  0     0  0
 57 60  1  0     0  0
 58 59  1  0     0  0
 59 62  1  0     0  0
 60 61  1  0     0  0
 61 47  1  0     0  0
 62 48  1  0     0  0
 16 13  1  0     0  0
 44 33  1  0     0  0
 48 54  2  0     0  0
 17 14  1  0     0  0
  5  2  2  0     0  0
 47 55  2  0     0  0
M  END
>  <prID>
411

>  <IDDB>
104387

>  <pIC50_HIV_Integrase>
6

>  <Q>
-7.813806526

>  <Activity_Integrase>
Inactive_Integrase

NA
NA
NA
NA
$$$$

  Accelrys05311914302D 1   1.00000     0.00000     0

 58 63  0     0  0            999 V2000
   -3.0542   -1.0292    0.0000 C   0  0  0  0  0  0           0  0  0
    3.0708   -1.0083    0.0000 C   0  0  0  0  0  0           0  0  0
   -3.5583   -1.3167    0.0000 S   0  0  3  0  0  0           0  0  0
    3.5875   -1.3000    0.0000 S   0  0  3  0  0  0           0  0  0
    3.0667   -0.4125    0.0000 C   0  0  0  0  0  0           0  0  0
   -3.0542   -0.4458    0.0000 C   0  0  0  0  0  0           0  0  0
   -3.5667   -0.1500    0.0000 N   0  0  0  0  0  0           0  0  0
    3.5792   -0.1083    0.0000 N   0  0  0  0  0  0           0  0  0
   -2.5500   -0.1583    0.0000 C   0  0  0  0  0  0           0  0  0
    2.5542   -0.1167    0.0000 C   0  0  0  0  0  0           0  0  0
    2.5583   -1.3042    0.0000 C   0  0  0  0  0  0           0  0  0
   -2.5500   -1.3208    0.0000 C   0  0  0  0  0  0           0  0  0
   -2.0458   -1.0250    0.0000 C   0  0  0  0  0  0           0  0  0
    2.0458   -1.0125    0.0000 C   0  0  0  0  0  0           0  0  0
   -0.0083   -1.0167    0.0000 C   0  0  0  0  0  0           0  0  0
   -2.0458   -0.4417    0.0000 C   0  0  0  0  0  0           0  0  0
    2.0417   -0.4167    0.0000 C   0  0  0  0  0  0           0  0  0
   -3.5667    0.4458    0.0000 N   0  0  0  0  0  0           0  0  0
    3.5792    0.4833    0.0000 N   0  0  0  0  0  0           0  0  0
    0.5083   -1.3167    0.0000 N   0  0  0  0  0  0           0  0  0
   -0.5208   -1.3167    0.0000 N   0  0  0  0  0  0           0  0  0
   -3.8417   -0.6917    0.0000 O   0  0  0  0  0  0           0  0  0
    4.0125   -0.8792    0.0000 O   0  0  0  0  0  0           0  0  0
    3.1375   -1.8000    0.0000 O   0  0  0  0  0  0           0  0  0
   -3.3417   -1.9792    0.0000 O   0  0  0  0  0  0           0  0  0
   -4.6000    1.6333    0.0000 C   0  0  0  0  0  0           0  0  0
    4.5875    1.6833    0.0000 C   0  0  0  0  0  0           0  0  0
    4.0792    1.3792    0.0000 C   0  0  0  0  0  0           0  0  0
   -4.0833    1.3333    0.0000 C   0  0  0  0  0  0           0  0  0
   -1.5417   -0.1500    0.0000 C   0  0  0  0  0  0           0  0  0
    1.5250   -0.1250    0.0000 C   0  0  0  0  0  0           0  0  0
   -1.5417   -1.3167    0.0000 C   0  0  0  0  0  0           0  0  0
    1.5333   -1.3167    0.0000 C   0  0  0  0  0  0           0  0  0
   -1.0375   -1.0250    0.0000 C   0  0  0  0  0  0           0  0  0
    1.0167   -1.0167    0.0000 C   0  0  0  0  0  0           0  0  0
   -0.0125   -0.4250    0.0000 O   0  0  0  0  0  0           0  0  0
   -5.1083    1.3333    0.0000 C   0  0  0  0  0  0           0  0  0
    5.1083    1.3875    0.0000 C   0  0  0  0  0  0           0  0  0
   -4.1125   -1.6583    0.0000 O   0  0  0  0  0  0           0  0  0
    4.0792   -1.6167    0.0000 O   0  0  0  0  0  0           0  0  0
    4.0875    0.7833    0.0000 C   0  0  0  0  0  0           0  0  0
   -4.0833    0.7417    0.0000 C   0  0  0  0  0  0           0  0  0
    5.1167    0.7958    0.0000 C   0  0  0  0  0  0           0  0  0
   -5.1083    0.7375    0.0000 C   0  0  0  0  0  0           0  0  0
    2.5500    0.4750    0.0000 O   0  0  0  0  0  0           0  0  0
   -2.5542    0.4250    0.0000 O   0  0  0  0  0  0           0  0  0
   -1.0417   -0.4375    0.0000 C   0  0  0  0  0  0           0  0  0
    1.0167   -0.4250    0.0000 C   0  0  0  0  0  0           0  0  0
    4.6000    0.4917    0.0000 C   0  0  0  0  0  0           0  0  0
   -4.6000    0.4417    0.0000 C   0  0  0  0  0  0           0  0  0
   -4.6000    2.2250    0.0000 O   0  0  0  0  0  0           0  0  0
    4.5792    2.2750    0.0000 O   0  0  0  0  0  0           0  0  0
   -5.6250    1.6292    0.0000 O   0  0  0  0  0  0           0  0  0
    5.6208    1.6875    0.0000 O   0  0  0  0  0  0           0  0  0
   -4.0833    2.5208    0.0000 C   0  0  0  0  0  0           0  0  0
    4.0667    2.5625    0.0000 C   0  0  0  0  0  0           0  0  0
   -6.1333    1.3292    0.0000 C   0  0  0  0  0  0           0  0  0
    6.1375    1.3958    0.0000 C   0  0  0  0  0  0           0  0  0
  2 11  1  0     0  0
  3  1  1  0     0  0
  4  2  1  0     0  0
  5 10  1  0     0  0
  6  1  2  0     0  0
  7  6  1  0     0  0
  8  5  1  0     0  0
  9  6  1  0     0  0
 10 17  2  0     0  0
 11 14  2  0     0  0
 12  1  1  0     0  0
 13 12  2  0     0  0
 14 33  1  0     0  0
 15 21  1  0     0  0
 16  9  2  0     0  0
 17 31  1  0     0  0
 18  7  2  0     0  0
 19  8  2  0     0  0
 20 15  1  0     0  0
 21 34  1  0     0  0
 22  3  2  0     0  0
 23  4  2  0     0  0
 24  4  2  0     0  0
 25  3  2  0     0  0
 26 29  1  0     0  0
 27 28  2  0     0  0
 28 41  1  0     0  0
 29 42  2  0     0  0
 30 16  1  0     0  0
 31 48  2  0     0  0
 32 13  1  0     0  0
 33 35  2  0     0  0
 34 32  2  0     0  0
 35 20  1  0     0  0
 36 15  2  0     0  0
 37 44  1  0     0  0
 38 43  2  0     0  0
 39  3  1  0     0  0
 40  4  1  0     0  0
 41 19  1  0     0  0
 42 18  1  0     0  0
 43 49  1  0     0  0
 44 50  2  0     0  0
 45 10  1  0     0  0
 46  9  1  0     0  0
 47 30  2  0     0  0
 48 35  1  0     0  0
 49 41  2  0     0  0
 50 42  1  0     0  0
 51 26  1  0     0  0
 52 27  1  0     0  0
 53 37  1  0     0  0
 54 38  1  0     0  0
 55 51  1  0     0  0
 56 52  1  0     0  0
 57 53  1  0     0  0
 58 54  1  0     0  0
 13 16  1  0     0  0
 34 47  1  0     0  0
 37 26  2  0     0  0
 17 14  1  0     0  0
  5  2  2  0     0  0
 38 27  1  0     0  0
M  END
>  <prID>
412

>  <IDDB>
104390

>  <pIC50_HIV_Integrase>
5.522878745

>  <Q>
-5.245185774

>  <Activity_Integrase>
Inactive_Integrase

NA
NA
NA
NA
$$$$

  Accelrys05311914302D 1   1.00000     0.00000     0

 62 69  0     0  0            999 V2000
   -3.6667   -1.4208    0.0000 C   0  0  0  0  0  0           0  0  0
    3.6875   -1.3958    0.0000 C   0  0  0  0  0  0           0  0  0
   -4.2750   -1.7750    0.0000 S   0  0  3  0  0  0           0  0  0
    4.3125   -1.7500    0.0000 S   0  0  3  0  0  0           0  0  0
    3.6833   -0.6792    0.0000 C   0  0  0  0  0  0           0  0  0
   -3.6625   -0.7208    0.0000 C   0  0  0  0  0  0           0  0  0
   -4.8958    1.4208    0.0000 C   0  0  0  0  0  0           0  0  0
    4.9000    1.4667    0.0000 C   0  0  0  0  0  0           0  0  0
    4.3000   -0.3167    0.0000 N   0  0  0  0  0  0           0  0  0
   -4.2833   -0.3625    0.0000 N   0  0  0  0  0  0           0  0  0
    3.0708   -0.3292    0.0000 C   0  0  0  0  0  0           0  0  0
   -3.0625   -0.3708    0.0000 C   0  0  0  0  0  0           0  0  0
   -4.2833    1.7750    0.0000 C   0  0  0  0  0  0           0  0  0
    4.2750    1.8167    0.0000 C   0  0  0  0  0  0           0  0  0
   -4.2833    2.4875    0.0000 N   0  0  0  0  0  0           0  0  0
    4.2667    2.5292    0.0000 N   0  0  0  0  0  0           0  0  0
   -4.9000    2.8417    0.0000 N   0  0  0  0  0  0           0  0  0
    4.8792    2.8958    0.0000 N   0  0  0  0  0  0           0  0  0
    3.0750   -1.7542    0.0000 C   0  0  0  0  0  0           0  0  0
   -3.0625   -1.7750    0.0000 C   0  0  0  0  0  0           0  0  0
   -5.5208    2.4833    0.0000 C   0  0  0  0  0  0           0  0  0
    5.5042    2.5417    0.0000 C   0  0  0  0  0  0           0  0  0
    2.4583   -1.4000    0.0000 C   0  0  0  0  0  0           0  0  0
   -2.4583   -1.4167    0.0000 C   0  0  0  0  0  0           0  0  0
   -5.5208    1.7750    0.0000 C   0  0  0  0  0  0           0  0  0
    5.5125    1.8333    0.0000 C   0  0  0  0  0  0           0  0  0
   -0.0083   -1.4083    0.0000 C   0  0  0  0  0  0           0  0  0
   -2.4583   -0.7167    0.0000 C   0  0  0  0  0  0           0  0  0
    2.4542   -0.6875    0.0000 C   0  0  0  0  0  0           0  0  0
   -4.2833    0.3500    0.0000 N   0  0  0  0  0  0           0  0  0
    4.2917    0.3958    0.0000 N   0  0  0  0  0  0           0  0  0
   -4.9000    0.7042    0.0000 C   0  0  0  0  0  0           0  0  0
    4.9083    0.7583    0.0000 C   0  0  0  0  0  0           0  0  0
   -0.6250   -1.7667    0.0000 N   0  0  0  0  0  0           0  0  0
    0.6083   -1.7625    0.0000 N   0  0  0  0  0  0           0  0  0
   -4.6042   -1.0167    0.0000 O   0  0  0  0  0  0           0  0  0
   -4.0125   -2.5583    0.0000 O   0  0  0  0  0  0           0  0  0
    4.8167   -1.2375    0.0000 O   0  0  0  0  0  0           0  0  0
    3.7625   -2.3417    0.0000 O   0  0  0  0  0  0           0  0  0
    1.8292   -0.3333    0.0000 C   0  0  0  0  0  0           0  0  0
   -1.8542   -0.3667    0.0000 C   0  0  0  0  0  0           0  0  0
    1.8417   -1.7583    0.0000 C   0  0  0  0  0  0           0  0  0
   -1.8500   -1.7667    0.0000 C   0  0  0  0  0  0           0  0  0
   -1.2417   -1.4167    0.0000 C   0  0  0  0  0  0           0  0  0
    1.2250   -1.4000    0.0000 C   0  0  0  0  0  0           0  0  0
   -0.0125   -0.6958    0.0000 O   0  0  0  0  0  0           0  0  0
    3.6625    1.4542    0.0000 O   0  0  0  0  0  0           0  0  0
   -3.6625    1.4208    0.0000 O   0  0  0  0  0  0           0  0  0
   -6.1375    2.8417    0.0000 O   0  0  0  0  0  0           0  0  0
    6.1167    2.9042    0.0000 O   0  0  0  0  0  0           0  0  0
   -4.9375   -2.1750    0.0000 O   0  0  0  0  0  0           0  0  0
    4.9000   -2.1292    0.0000 O   0  0  0  0  0  0           0  0  0
    3.0583    0.3833    0.0000 O   0  0  0  0  0  0           0  0  0
   -3.0625    0.3250    0.0000 O   0  0  0  0  0  0           0  0  0
    1.2167   -0.6958    0.0000 C   0  0  0  0  0  0           0  0  0
   -1.2500   -0.7125    0.0000 C   0  0  0  0  0  0           0  0  0
   -6.1250    1.4167    0.0000 C   0  0  0  0  0  0           0  0  0
    6.1375    1.4833    0.0000 C   0  0  0  0  0  0           0  0  0
   -6.1208    0.7000    0.0000 C   0  0  0  0  0  0           0  0  0
    6.1375    0.7667    0.0000 C   0  0  0  0  0  0           0  0  0
    5.5292    0.4042    0.0000 C   0  0  0  0  0  0           0  0  0
   -5.5167    0.3458    0.0000 C   0  0  0  0  0  0           0  0  0
  2 19  1  0     0  0
  3  1  1  0     0  0
  4  2  1  0     0  0
  5 11  1  0     0  0
  6  1  2  0     0  0
  7 32  2  0     0  0
  8 33  1  0     0  0
  9  5  1  0     0  0
 10  6  1  0     0  0
 11 29  2  0     0  0
 12  6  1  0     0  0
 13  7  1  0     0  0
 14  8  1  0     0  0
 15 13  1  0     0  0
 16 14  1  0     0  0
 17 15  1  0     0  0
 18 16  1  0     0  0
 19 23  2  0     0  0
 20  1  1  0     0  0
 21 25  1  0     0  0
 22 26  1  0     0  0
 23 42  1  0     0  0
 24 20  2  0     0  0
 25  7  1  0     0  0
 26  8  2  0     0  0
 27 34  1  0     0  0
 28 24  1  0     0  0
 29 40  1  0     0  0
 30 10  2  0     0  0
 31  9  2  0     0  0
 32 30  1  0     0  0
 33 31  1  0     0  0
 34 44  1  0     0  0
 35 27  1  0     0  0
 36  3  2  0     0  0
 37  3  2  0     0  0
 38  4  2  0     0  0
 39  4  2  0     0  0
 40 55  2  0     0  0
 41 28  1  0     0  0
 42 45  2  0     0  0
 43 24  1  0     0  0
 44 43  2  0     0  0
 45 35  1  0     0  0
 46 27  2  0     0  0
 47 14  2  0     0  0
 48 13  2  0     0  0
 49 21  2  0     0  0
 50 22  2  0     0  0
 51  3  1  0     0  0
 52  4  1  0     0  0
 53 11  1  0     0  0
 54 12  1  0     0  0
 55 45  1  0     0  0
 56 41  2  0     0  0
 57 59  1  0     0  0
 58 60  2  0     0  0
 59 62  2  0     0  0
 60 61  1  0     0  0
 61 33  2  0     0  0
 62 32  1  0     0  0
 28 12  2  0     0  0
 44 56  1  0     0  0
 57 25  2  0     0  0
 17 21  1  0     0  0
 29 23  1  0     0  0
  5  2  2  0     0  0
 58 26  1  0     0  0
 18 22  1  0     0  0
M  END
>  <prID>
413

>  <IDDB>
104400

>  <pIC50_HIV_Integrase>
6

>  <Q>
-8.128663514

>  <Activity_Integrase>
Inactive_Integrase

NA
NA
NA
NA
$$$$

  Accelrys05311914302D 1   1.00000     0.00000     0

 68 73  0     0  0            999 V2000
    3.0833   -1.0625    0.0000 C   0  0  0  0  0  0           0  0  0
   -3.0417   -1.0875    0.0000 C   0  0  0  0  0  0           0  0  0
    3.6042   -1.3583    0.0000 S   0  0  3  0  0  0           0  0  0
   -3.5417   -1.3792    0.0000 S   0  0  3  0  0  0           0  0  0
   -3.0417   -0.5000    0.0000 C   0  0  0  0  0  0           0  0  0
    3.0833   -0.4667    0.0000 C   0  0  0  0  0  0           0  0  0
    4.1000    0.7292    0.0000 C   0  0  0  0  0  0           0  0  0
   -4.0708    0.6833    0.0000 C   0  0  0  0  0  0           0  0  0
    4.6167    0.4375    0.0000 C   0  0  0  0  0  0           0  0  0
   -4.5833    0.3875    0.0000 C   0  0  0  0  0  0           0  0  0
   -4.0667    1.2792    0.0000 C   0  0  0  0  0  0           0  0  0
    4.0917    1.3208    0.0000 C   0  0  0  0  0  0           0  0  0
   -3.5583   -0.2042    0.0000 N   0  0  0  0  0  0           0  0  0
    3.5958   -0.1667    0.0000 N   0  0  0  0  0  0           0  0  0
   -3.5583    0.3875    0.0000 N   0  0  0  0  0  0           0  0  0
    3.5917    0.4250    0.0000 N   0  0  0  0  0  0           0  0  0
    2.5667   -0.1792    0.0000 C   0  0  0  0  0  0           0  0  0
   -2.5417   -0.2125    0.0000 C   0  0  0  0  0  0           0  0  0
    4.6000    1.6208    0.0000 C   0  0  0  0  0  0           0  0  0
   -4.5833    1.5750    0.0000 C   0  0  0  0  0  0           0  0  0
    2.5750   -1.3625    0.0000 C   0  0  0  0  0  0           0  0  0
   -2.5417   -1.3792    0.0000 C   0  0  0  0  0  0           0  0  0
   -2.0333   -1.0833    0.0000 C   0  0  0  0  0  0           0  0  0
    2.0583   -1.0667    0.0000 C   0  0  0  0  0  0           0  0  0
    5.1292    0.7375    0.0000 C   0  0  0  0  0  0           0  0  0
   -5.1000    0.6833    0.0000 C   0  0  0  0  0  0           0  0  0
    0.0042   -1.0792    0.0000 C   0  0  0  0  0  0           0  0  0
    2.0583   -0.4750    0.0000 C   0  0  0  0  0  0           0  0  0
   -2.0333   -0.5000    0.0000 C   0  0  0  0  0  0           0  0  0
    4.6208   -0.1583    0.0000 C   0  0  0  0  0  0           0  0  0
   -4.5792   -0.2083    0.0000 C   0  0  0  0  0  0           0  0  0
    5.1208    1.3292    0.0000 C   0  0  0  0  0  0           0  0  0
   -5.1000    1.2792    0.0000 C   0  0  0  0  0  0           0  0  0
    0.5167   -1.3750    0.0000 N   0  0  0  0  0  0           0  0  0
   -0.5083   -1.3750    0.0000 N   0  0  0  0  0  0           0  0  0
    3.1500   -1.8542    0.0000 O   0  0  0  0  0  0           0  0  0
    4.0292   -0.9375    0.0000 O   0  0  0  0  0  0           0  0  0
   -3.0542   -1.9292    0.0000 O   0  0  0  0  0  0           0  0  0
   -4.0667   -0.9167    0.0000 O   0  0  0  0  0  0           0  0  0
   -1.5333   -0.2083    0.0000 C   0  0  0  0  0  0           0  0  0
    1.5375   -0.1792    0.0000 C   0  0  0  0  0  0           0  0  0
   -1.5250   -1.3750    0.0000 C   0  0  0  0  0  0           0  0  0
    1.5458   -1.3667    0.0000 C   0  0  0  0  0  0           0  0  0
    1.0333   -1.0708    0.0000 C   0  0  0  0  0  0           0  0  0
   -1.0250   -1.0792    0.0000 C   0  0  0  0  0  0           0  0  0
    0.0000   -0.4792    0.0000 O   0  0  0  0  0  0           0  0  0
    4.0917   -1.6792    0.0000 O   0  0  0  0  0  0           0  0  0
   -4.0667   -1.8375    0.0000 O   0  0  0  0  0  0           0  0  0
    4.1125   -0.4583    0.0000 O   0  0  0  0  0  0           0  0  0
   -4.0625   -0.5000    0.0000 O   0  0  0  0  0  0           0  0  0
    3.5750    1.6125    0.0000 O   0  0  0  0  0  0           0  0  0
   -3.5583    1.5750    0.0000 O   0  0  0  0  0  0           0  0  0
   -2.5417    0.3708    0.0000 O   0  0  0  0  0  0           0  0  0
    2.5625    0.4167    0.0000 O   0  0  0  0  0  0           0  0  0
   -4.5833    2.1667    0.0000 O   0  0  0  0  0  0           0  0  0
    4.6000    2.2208    0.0000 O   0  0  0  0  0  0           0  0  0
    1.0250   -0.4792    0.0000 C   0  0  0  0  0  0           0  0  0
   -1.0292   -0.4958    0.0000 C   0  0  0  0  0  0           0  0  0
   -5.0958   -0.5083    0.0000 O   0  0  0  0  0  0           0  0  0
    5.1375   -0.4500    0.0000 O   0  0  0  0  0  0           0  0  0
    5.6375    1.6292    0.0000 O   0  0  0  0  0  0           0  0  0
   -5.6167    1.5750    0.0000 O   0  0  0  0  0  0           0  0  0
   -3.0417    1.2792    0.0000 C   0  0  0  0  0  0           0  0  0
    3.0625    1.3083    0.0000 C   0  0  0  0  0  0           0  0  0
    4.0792    2.5042    0.0000 C   0  0  0  0  0  0           0  0  0
   -5.1000    2.4708    0.0000 C   0  0  0  0  0  0           0  0  0
    6.1542    1.3375    0.0000 C   0  0  0  0  0  0           0  0  0
   -6.1167    1.2792    0.0000 C   0  0  0  0  0  0           0  0  0
  2 22  1  0     0  0
  3  1  1  0     0  0
  4  2  1  0     0  0
  5 18  1  0     0  0
  6  1  2  0     0  0
  7 16  1  0     0  0
  8 15  1  0     0  0
  9  7  2  0     0  0
 10  8  1  0     0  0
 11  8  2  0     0  0
 12  7  1  0     0  0
 13  5  1  0     0  0
 14  6  1  0     0  0
 15 13  2  0     0  0
 16 14  2  0     0  0
 17  6  1  0     0  0
 18 29  2  0     0  0
 19 12  2  0     0  0
 20 11  1  0     0  0
 21  1  1  0     0  0
 22 23  2  0     0  0
 23 42  1  0     0  0
 24 21  2  0     0  0
 25  9  1  0     0  0
 26 10  2  0     0  0
 27 34  1  0     0  0
 28 24  1  0     0  0
 29 40  1  0     0  0
 30  9  1  0     0  0
 31 10  1  0     0  0
 32 25  2  0     0  0
 33 26  1  0     0  0
 34 44  1  0     0  0
 35 27  1  0     0  0
 36  3  2  0     0  0
 37  3  2  0     0  0
 38  4  2  0     0  0
 39  4  2  0     0  0
 40 58  2  0     0  0
 41 28  1  0     0  0
 42 45  2  0     0  0
 43 24  1  0     0  0
 44 43  2  0     0  0
 45 35  1  0     0  0
 46 27  2  0     0  0
 47  3  1  0     0  0
 48  4  1  0     0  0
 49 30  2  0     0  0
 50 31  2  0     0  0
 51 12  1  0     0  0
 52 11  1  0     0  0
 53 18  1  0     0  0
 54 17  1  0     0  0
 55 20  1  0     0  0
 56 19  1  0     0  0
 57 41  2  0     0  0
 58 45  1  0     0  0
 59 31  1  0     0  0
 60 30  1  0     0  0
 61 32  1  0     0  0
 62 33  1  0     0  0
 63 52  1  0     0  0
 64 51  1  0     0  0
 65 56  1  0     0  0
 66 55  1  0     0  0
 67 61  1  0     0  0
 68 62  1  0     0  0
 28 17  2  0     0  0
 44 57  1  0     0  0
 32 19  1  0     0  0
 29 23  1  0     0  0
  5  2  2  0     0  0
 33 20  2  0     0  0
M  END
>  <prID>
414

>  <IDDB>
104401

>  <pIC50_HIV_Integrase>
5.698970004

>  <Q>
-7.52830194

>  <Activity_Integrase>
Inactive_Integrase

NA
NA
NA
NA
$$$$

  Accelrys05311914302D 1   1.00000     0.00000     0

 62 67  0     0  0            999 V2000
   -3.0625   -1.0458    0.0000 C   0  0  0  0  0  0           0  0  0
    3.0708   -1.0250    0.0000 C   0  0  0  0  0  0           0  0  0
   -3.5583   -1.3375    0.0000 S   0  0  3  0  0  0           0  0  0
    3.5875   -1.3167    0.0000 S   0  0  3  0  0  0           0  0  0
    3.0667   -0.4292    0.0000 C   0  0  0  0  0  0           0  0  0
   -3.0542   -0.4625    0.0000 C   0  0  0  0  0  0           0  0  0
   -3.5708   -0.1667    0.0000 N   0  0  0  0  0  0           0  0  0
    3.5792   -0.1292    0.0000 N   0  0  0  0  0  0           0  0  0
   -2.5500   -0.1750    0.0000 C   0  0  0  0  0  0           0  0  0
    2.5500   -0.1375    0.0000 C   0  0  0  0  0  0           0  0  0
    2.5583   -1.3208    0.0000 C   0  0  0  0  0  0           0  0  0
   -2.5500   -1.3375    0.0000 C   0  0  0  0  0  0           0  0  0
   -2.0458   -1.0417    0.0000 C   0  0  0  0  0  0           0  0  0
    2.0417   -1.0292    0.0000 C   0  0  0  0  0  0           0  0  0
   -0.0125   -1.0375    0.0000 C   0  0  0  0  0  0           0  0  0
   -2.0500   -0.4583    0.0000 C   0  0  0  0  0  0           0  0  0
    2.0417   -0.4375    0.0000 C   0  0  0  0  0  0           0  0  0
   -4.6000    1.6125    0.0000 C   0  0  0  0  0  0           0  0  0
   -5.1083    0.7208    0.0000 C   0  0  0  0  0  0           0  0  0
    5.1083    0.7792    0.0000 C   0  0  0  0  0  0           0  0  0
    4.5875    1.6625    0.0000 C   0  0  0  0  0  0           0  0  0
   -3.5708    0.4208    0.0000 N   0  0  0  0  0  0           0  0  0
    3.5792    0.4667    0.0000 N   0  0  0  0  0  0           0  0  0
   -5.6208    0.4208    0.0000 C   0  0  0  0  0  0           0  0  0
   -4.6000    2.2083    0.0000 C   0  0  0  0  0  0           0  0  0
    5.6250    0.4833    0.0000 C   0  0  0  0  0  0           0  0  0
    4.5792    2.2583    0.0000 C   0  0  0  0  0  0           0  0  0
   -5.1125    1.3167    0.0000 C   0  0  0  0  0  0           0  0  0
    5.1083    1.3708    0.0000 C   0  0  0  0  0  0           0  0  0
    0.5042   -1.3333    0.0000 N   0  0  0  0  0  0           0  0  0
   -0.5208   -1.3375    0.0000 N   0  0  0  0  0  0           0  0  0
    4.0125   -0.8958    0.0000 O   0  0  0  0  0  0           0  0  0
    3.1333   -1.8167    0.0000 O   0  0  0  0  0  0           0  0  0
   -4.0792   -0.8792    0.0000 O   0  0  0  0  0  0           0  0  0
   -3.0667   -1.8917    0.0000 O   0  0  0  0  0  0           0  0  0
    1.5208   -0.1417    0.0000 C   0  0  0  0  0  0           0  0  0
   -1.5458   -0.1708    0.0000 C   0  0  0  0  0  0           0  0  0
    4.0875    0.7667    0.0000 C   0  0  0  0  0  0           0  0  0
   -4.0833    0.7250    0.0000 C   0  0  0  0  0  0           0  0  0
    1.5333   -1.3292    0.0000 C   0  0  0  0  0  0           0  0  0
   -1.5417   -1.3375    0.0000 C   0  0  0  0  0  0           0  0  0
   -4.0833    1.3167    0.0000 C   0  0  0  0  0  0           0  0  0
    4.6000    0.4750    0.0000 C   0  0  0  0  0  0           0  0  0
    4.0792    1.3625    0.0000 C   0  0  0  0  0  0           0  0  0
   -4.6000    0.4208    0.0000 C   0  0  0  0  0  0           0  0  0
   -1.0417   -1.0417    0.0000 C   0  0  0  0  0  0           0  0  0
    1.0167   -1.0333    0.0000 C   0  0  0  0  0  0           0  0  0
   -0.0125   -0.4417    0.0000 O   0  0  0  0  0  0           0  0  0
    4.0792   -1.6375    0.0000 O   0  0  0  0  0  0           0  0  0
   -4.0792   -1.8000    0.0000 O   0  0  0  0  0  0           0  0  0
   -5.6208   -0.1750    0.0000 O   0  0  0  0  0  0           0  0  0
   -4.0833    2.5042    0.0000 O   0  0  0  0  0  0           0  0  0
    5.6375   -0.1125    0.0000 O   0  0  0  0  0  0           0  0  0
    5.0958    2.5625    0.0000 O   0  0  0  0  0  0           0  0  0
   -2.5542    0.4083    0.0000 O   0  0  0  0  0  0           0  0  0
    2.5458    0.4583    0.0000 O   0  0  0  0  0  0           0  0  0
    1.0125   -0.4417    0.0000 C   0  0  0  0  0  0           0  0  0
   -1.0417   -0.4583    0.0000 C   0  0  0  0  0  0           0  0  0
    6.1375    0.7833    0.0000 O   0  0  0  0  0  0           0  0  0
   -6.1333    0.7167    0.0000 O   0  0  0  0  0  0           0  0  0
    4.0625    2.5500    0.0000 O   0  0  0  0  0  0           0  0  0
   -5.1083    2.5042    0.0000 O   0  0  0  0  0  0           0  0  0
  2 11  1  0     0  0
  3  1  1  0     0  0
  4  2  1  0     0  0
  5 10  1  0     0  0
  6  1  2  0     0  0
  7  6  1  0     0  0
  8  5  1  0     0  0
  9  6  1  0     0  0
 10 17  2  0     0  0
 11 14  2  0     0  0
 12  1  1  0     0  0
 13 12  2  0     0  0
 14 40  1  0     0  0
 15 31  1  0     0  0
 16  9  2  0     0  0
 17 36  1  0     0  0
 18 42  1  0     0  0
 19 45  2  0     0  0
 20 43  1  0     0  0
 21 44  2  0     0  0
 22  7  2  0     0  0
 23  8  2  0     0  0
 24 19  1  0     0  0
 25 18  1  0     0  0
 26 20  1  0     0  0
 27 21  1  0     0  0
 28 19  1  0     0  0
 29 21  1  0     0  0
 30 15  1  0     0  0
 31 46  1  0     0  0
 32  4  2  0     0  0
 33  4  2  0     0  0
 34  3  2  0     0  0
 35  3  2  0     0  0
 36 57  2  0     0  0
 37 16  1  0     0  0
 38 23  1  0     0  0
 39 22  1  0     0  0
 40 47  2  0     0  0
 41 13  1  0     0  0
 42 39  2  0     0  0
 43 38  2  0     0  0
 44 38  1  0     0  0
 45 39  1  0     0  0
 46 41  2  0     0  0
 47 30  1  0     0  0
 48 15  2  0     0  0
 49  4  1  0     0  0
 50  3  1  0     0  0
 51 24  2  0     0  0
 52 25  2  0     0  0
 53 26  2  0     0  0
 54 27  2  0     0  0
 55  9  1  0     0  0
 56 10  1  0     0  0
 57 47  1  0     0  0
 58 37  2  0     0  0
 59 26  1  0     0  0
 60 24  1  0     0  0
 61 27  1  0     0  0
 62 25  1  0     0  0
 13 16  1  0     0  0
 46 58  1  0     0  0
 28 18  2  0     0  0
 17 14  1  0     0  0
  5  2  2  0     0  0
 29 20  2  0     0  0
M  END
>  <prID>
415

>  <IDDB>
104402

>  <pIC50_HIV_Integrase>
6.045757491

>  <Q>
-7.929983186

>  <Activity_Integrase>
Active_Integrase

NA
NA
NA
NA
$$$$

  Accelrys05311914302D 1   1.00000     0.00000     0

 60 65  0     0  0            999 V2000
   -3.0583   -0.9917    0.0000 C   0  0  0  0  0  0           0  0  0
    3.0708   -0.9708    0.0000 C   0  0  0  0  0  0           0  0  0
   -3.5625   -1.2833    0.0000 S   0  0  3  0  0  0           0  0  0
    3.5875   -1.2625    0.0000 S   0  0  3  0  0  0           0  0  0
    3.0667   -0.3750    0.0000 C   0  0  0  0  0  0           0  0  0
   -3.0583   -0.4083    0.0000 C   0  0  0  0  0  0           0  0  0
   -3.5708   -0.1125    0.0000 N   0  0  0  0  0  0           0  0  0
    3.5792   -0.0750    0.0000 N   0  0  0  0  0  0           0  0  0
   -4.0833    0.7792    0.0000 C   0  0  0  0  0  0           0  0  0
    4.0833    0.8208    0.0000 C   0  0  0  0  0  0           0  0  0
    3.5750    0.5208    0.0000 N   0  0  0  0  0  0           0  0  0
   -3.5708    0.4833    0.0000 N   0  0  0  0  0  0           0  0  0
   -2.5542   -0.1167    0.0000 C   0  0  0  0  0  0           0  0  0
    2.5500   -0.0833    0.0000 C   0  0  0  0  0  0           0  0  0
    2.5583   -1.2667    0.0000 C   0  0  0  0  0  0           0  0  0
   -2.5500   -1.2833    0.0000 C   0  0  0  0  0  0           0  0  0
   -2.0458   -0.9917    0.0000 C   0  0  0  0  0  0           0  0  0
    2.0375   -0.9750    0.0000 C   0  0  0  0  0  0           0  0  0
   -0.0125   -0.9792    0.0000 C   0  0  0  0  0  0           0  0  0
   -2.0500   -0.4042    0.0000 C   0  0  0  0  0  0           0  0  0
    2.0375   -0.3792    0.0000 C   0  0  0  0  0  0           0  0  0
   -4.0833    1.3708    0.0000 C   0  0  0  0  0  0           0  0  0
   -4.5958    0.4833    0.0000 C   0  0  0  0  0  0           0  0  0
    4.6000    0.5292    0.0000 C   0  0  0  0  0  0           0  0  0
    4.0792    1.4167    0.0000 C   0  0  0  0  0  0           0  0  0
   -5.1125    1.3708    0.0000 C   0  0  0  0  0  0           0  0  0
    5.1083    1.4208    0.0000 C   0  0  0  0  0  0           0  0  0
   -5.6208    1.6667    0.0000 C   0  0  0  0  0  0           0  0  0
    5.6167    1.7250    0.0000 C   0  0  0  0  0  0           0  0  0
    5.1083    0.8292    0.0000 C   0  0  0  0  0  0           0  0  0
    4.5833    1.7208    0.0000 C   0  0  0  0  0  0           0  0  0
   -4.5958    1.6667    0.0000 C   0  0  0  0  0  0           0  0  0
   -5.1083    0.7750    0.0000 C   0  0  0  0  0  0           0  0  0
    0.5042   -1.2792    0.0000 N   0  0  0  0  0  0           0  0  0
   -0.5208   -1.2792    0.0000 N   0  0  0  0  0  0           0  0  0
   -3.0667   -1.8375    0.0000 O   0  0  0  0  0  0           0  0  0
   -4.0792   -0.8208    0.0000 O   0  0  0  0  0  0           0  0  0
    4.0083   -0.8375    0.0000 O   0  0  0  0  0  0           0  0  0
    3.1333   -1.7583    0.0000 O   0  0  0  0  0  0           0  0  0
    1.5208   -0.0875    0.0000 C   0  0  0  0  0  0           0  0  0
   -1.5458   -0.1167    0.0000 C   0  0  0  0  0  0           0  0  0
    1.5333   -1.2750    0.0000 C   0  0  0  0  0  0           0  0  0
   -1.5417   -1.2792    0.0000 C   0  0  0  0  0  0           0  0  0
   -1.0417   -0.9875    0.0000 C   0  0  0  0  0  0           0  0  0
    1.0167   -0.9792    0.0000 C   0  0  0  0  0  0           0  0  0
   -0.0125   -0.3875    0.0000 O   0  0  0  0  0  0           0  0  0
   -4.0792   -1.7458    0.0000 O   0  0  0  0  0  0           0  0  0
    4.0792   -1.5792    0.0000 O   0  0  0  0  0  0           0  0  0
   -5.6208    2.2625    0.0000 O   0  0  0  0  0  0           0  0  0
    5.6125    2.3208    0.0000 O   0  0  0  0  0  0           0  0  0
   -2.5542    0.4625    0.0000 O   0  0  0  0  0  0           0  0  0
    2.5458    0.5125    0.0000 O   0  0  0  0  0  0           0  0  0
    3.5583    1.7042    0.0000 Cl  0  0  0  0  0  0           0  0  0
   -3.5667    1.6667    0.0000 Cl  0  0  0  0  0  0           0  0  0
    4.6042   -0.0625    0.0000 Cl  0  0  0  0  0  0           0  0  0
   -4.5917   -0.1167    0.0000 Cl  0  0  0  0  0  0           0  0  0
    1.0125   -0.3875    0.0000 C   0  0  0  0  0  0           0  0  0
   -1.0417   -0.4000    0.0000 C   0  0  0  0  0  0           0  0  0
    6.1375    1.4292    0.0000 O   0  0  0  0  0  0           0  0  0
   -6.1375    1.3708    0.0000 O   0  0  0  0  0  0           0  0  0
  2 15  1  0     0  0
  3  1  1  0     0  0
  4  2  1  0     0  0
  5 14  1  0     0  0
  6  1  2  0     0  0
  7  6  1  0     0  0
  8  5  1  0     0  0
  9 12  1  0     0  0
 10 11  1  0     0  0
 11  8  2  0     0  0
 12  7  2  0     0  0
 13  6  1  0     0  0
 14 21  2  0     0  0
 15 18  2  0     0  0
 16  1  1  0     0  0
 17 16  2  0     0  0
 18 42  1  0     0  0
 19 35  1  0     0  0
 20 13  2  0     0  0
 21 40  1  0     0  0
 22  9  2  0     0  0
 23  9  1  0     0  0
 24 10  2  0     0  0
 25 10  1  0     0  0
 26 33  1  0     0  0
 27 31  1  0     0  0
 28 26  1  0     0  0
 29 27  1  0     0  0
 30 24  1  0     0  0
 31 25  2  0     0  0
 32 22  1  0     0  0
 33 23  2  0     0  0
 34 19  1  0     0  0
 35 44  1  0     0  0
 36  3  2  0     0  0
 37  3  2  0     0  0
 38  4  2  0     0  0
 39  4  2  0     0  0
 40 57  2  0     0  0
 41 20  1  0     0  0
 42 45  2  0     0  0
 43 17  1  0     0  0
 44 43  2  0     0  0
 45 34  1  0     0  0
 46 19  2  0     0  0
 47  3  1  0     0  0
 48  4  1  0     0  0
 49 28  2  0     0  0
 50 29  2  0     0  0
 51 13  1  0     0  0
 52 14  1  0     0  0
 53 25  1  0     0  0
 54 22  1  0     0  0
 55 24  1  0     0  0
 56 23  1  0     0  0
 57 45  1  0     0  0
 58 41  2  0     0  0
 59 29  1  0     0  0
 60 28  1  0     0  0
 20 17  1  0     0  0
 58 44  1  0     0  0
 26 32  2  0     0  0
 21 18  1  0     0  0
  5  2  2  0     0  0
 27 30  2  0     0  0
M  END
>  <prID>
416

>  <IDDB>
104403

>  <pIC50_HIV_Integrase>
6.301029996

>  <Q>
-9.770389092

>  <Activity_Integrase>
Active_Integrase

NA
NA
NA
NA
$$$$

  Accelrys05311914302D 1   1.00000     0.00000     0

 59 64  0     0  0            999 V2000
    2.9875   -0.9708    0.0000 C   0  0  0  0  0  0           0  0  0
   -3.1333   -0.9958    0.0000 C   0  0  0  0  0  0           0  0  0
    3.5042   -1.2667    0.0000 S   0  0  3  0  0  0           0  0  0
   -3.6375   -1.2792    0.0000 S   0  0  3  0  0  0           0  0  0
    2.9833   -0.3792    0.0000 C   0  0  0  0  0  0           0  0  0
   -3.1333   -0.4125    0.0000 C   0  0  0  0  0  0           0  0  0
    3.4958   -0.0750    0.0000 N   0  0  0  0  0  0           0  0  0
   -3.6458   -0.1167    0.0000 N   0  0  0  0  0  0           0  0  0
    3.4958    0.5208    0.0000 N   0  0  0  0  0  0           0  0  0
    2.4750   -0.0833    0.0000 C   0  0  0  0  0  0           0  0  0
   -2.6292   -0.1167    0.0000 C   0  0  0  0  0  0           0  0  0
    4.0042    0.8208    0.0000 C   0  0  0  0  0  0           0  0  0
   -2.6292   -1.2875    0.0000 C   0  0  0  0  0  0           0  0  0
    2.4792   -1.2708    0.0000 C   0  0  0  0  0  0           0  0  0
    1.9667   -0.9792    0.0000 C   0  0  0  0  0  0           0  0  0
   -2.1250   -0.9917    0.0000 C   0  0  0  0  0  0           0  0  0
   -0.0875   -0.9833    0.0000 C   0  0  0  0  0  0           0  0  0
    1.9583   -0.3833    0.0000 C   0  0  0  0  0  0           0  0  0
   -2.1250   -0.4083    0.0000 C   0  0  0  0  0  0           0  0  0
   -3.6458    0.4833    0.0000 N   0  0  0  0  0  0           0  0  0
    5.0292    1.4208    0.0000 C   0  0  0  0  0  0           0  0  0
    4.5208    0.5250    0.0000 C   0  0  0  0  0  0           0  0  0
    4.0000    1.4125    0.0000 C   0  0  0  0  0  0           0  0  0
    5.5375    1.7208    0.0000 C   0  0  0  0  0  0           0  0  0
   -5.7042    1.6667    0.0000 C   0  0  0  0  0  0           0  0  0
   -5.1875    1.3708    0.0000 C   0  0  0  0  0  0           0  0  0
    5.0333    0.8292    0.0000 C   0  0  0  0  0  0           0  0  0
    4.5125    1.7167    0.0000 C   0  0  0  0  0  0           0  0  0
    0.4250   -1.2792    0.0000 N   0  0  0  0  0  0           0  0  0
   -0.6000   -1.2792    0.0000 N   0  0  0  0  0  0           0  0  0
   -4.6750    1.6667    0.0000 C   0  0  0  0  0  0           0  0  0
    3.9292   -0.8417    0.0000 O   0  0  0  0  0  0           0  0  0
    3.0500   -1.7625    0.0000 O   0  0  0  0  0  0           0  0  0
   -3.1458   -1.8375    0.0000 O   0  0  0  0  0  0           0  0  0
   -4.1625   -0.8250    0.0000 O   0  0  0  0  0  0           0  0  0
   -4.1625    0.7792    0.0000 C   0  0  0  0  0  0           0  0  0
   -4.1625    1.3708    0.0000 C   0  0  0  0  0  0           0  0  0
   -1.6208   -0.1167    0.0000 C   0  0  0  0  0  0           0  0  0
    1.4375   -0.0875    0.0000 C   0  0  0  0  0  0           0  0  0
   -1.6208   -1.2792    0.0000 C   0  0  0  0  0  0           0  0  0
    1.4542   -1.2792    0.0000 C   0  0  0  0  0  0           0  0  0
    0.9375   -0.9792    0.0000 C   0  0  0  0  0  0           0  0  0
   -1.1208   -0.9875    0.0000 C   0  0  0  0  0  0           0  0  0
   -0.0917   -0.3917    0.0000 O   0  0  0  0  0  0           0  0  0
    4.0708   -1.6042    0.0000 O   0  0  0  0  0  0           0  0  0
   -4.1625   -1.7458    0.0000 O   0  0  0  0  0  0           0  0  0
    5.5375    2.3167    0.0000 O   0  0  0  0  0  0           0  0  0
   -5.7042    2.2625    0.0000 O   0  0  0  0  0  0           0  0  0
   -5.1875    0.7750    0.0000 C   0  0  0  0  0  0           0  0  0
   -4.6750    0.4792    0.0000 C   0  0  0  0  0  0           0  0  0
    2.4667    0.5083    0.0000 O   0  0  0  0  0  0           0  0  0
   -2.6333    0.4625    0.0000 O   0  0  0  0  0  0           0  0  0
    4.5250   -0.0667    0.0000 Cl  0  0  0  0  0  0           0  0  0
    0.9292   -0.3917    0.0000 C   0  0  0  0  0  0           0  0  0
   -1.1208   -0.4042    0.0000 C   0  0  0  0  0  0           0  0  0
    6.0583    1.4292    0.0000 O   0  0  0  0  0  0           0  0  0
   -6.2167    1.3667    0.0000 O   0  0  0  0  0  0           0  0  0
    3.4792    1.7000    0.0000 C   0  0  0  0  0  0           0  0  0
   -3.6458    1.6625    0.0000 C   0  0  0  0  0  0           0  0  0
  2 13  1  0     0  0
  3  1  1  0     0  0
  4  2  1  0     0  0
  5  1  2  0     0  0
  6 11  1  0     0  0
  7  5  1  0     0  0
  8  6  1  0     0  0
  9  7  2  0     0  0
 10  5  1  0     0  0
 11 19  2  0     0  0
 12  9  1  0     0  0
 13 16  2  0     0  0
 14  1  1  0     0  0
 15 14  2  0     0  0
 16 40  1  0     0  0
 17 29  1  0     0  0
 18 10  2  0     0  0
 19 38  1  0     0  0
 20  8  2  0     0  0
 21 27  2  0     0  0
 22 12  2  0     0  0
 23 12  1  0     0  0
 24 21  1  0     0  0
 25 26  1  0     0  0
 26 49  1  0     0  0
 27 22  1  0     0  0
 28 23  2  0     0  0
 29 42  1  0     0  0
 30 17  1  0     0  0
 31 37  1  0     0  0
 32  3  2  0     0  0
 33  3  2  0     0  0
 34  4  2  0     0  0
 35  4  2  0     0  0
 36 20  1  0     0  0
 37 36  2  0     0  0
 38 55  2  0     0  0
 39 18  1  0     0  0
 40 43  2  0     0  0
 41 15  1  0     0  0
 42 41  2  0     0  0
 43 30  1  0     0  0
 44 17  2  0     0  0
 45  3  1  0     0  0
 46  4  1  0     0  0
 47 24  2  0     0  0
 48 25  2  0     0  0
 49 50  2  0     0  0
 50 36  1  0     0  0
 51 10  1  0     0  0
 52 11  1  0     0  0
 53 22  1  0     0  0
 54 39  2  0     0  0
 55 43  1  0     0  0
 56 24  1  0     0  0
 57 25  1  0     0  0
 58 23  1  0     0  0
 59 37  1  0     0  0
 18 15  1  0     0  0
 54 42  1  0     0  0
 21 28  1  0     0  0
 19 16  1  0     0  0
  6  2  2  0     0  0
 26 31  2  0     0  0
M  END
>  <prID>
417

>  <IDDB>
104404

>  <pIC50_HIV_Integrase>
5.698970004

>  <Q>
-7.385061866

>  <Activity_Integrase>
Inactive_Integrase

NA
NA
NA
NA
$$$$

  Accelrys05311914302D 1   1.00000     0.00000     0

 74 79  0     0  0            999 V2000
   -2.6125   -1.1000    0.0000 C   0  0  0  0  0  0           0  0  0
    2.6208   -1.0792    0.0000 C   0  0  0  0  0  0           0  0  0
   -3.0417   -1.3500    0.0000 S   0  0  3  0  0  0           0  0  0
    3.0625   -1.3375    0.0000 S   0  0  3  0  0  0           0  0  0
    2.6208   -0.5750    0.0000 C   0  0  0  0  0  0           0  0  0
   -2.6125   -0.6000    0.0000 C   0  0  0  0  0  0           0  0  0
   -3.0542   -0.3458    0.0000 N   0  0  0  0  0  0           0  0  0
    3.0583   -0.3167    0.0000 N   0  0  0  0  0  0           0  0  0
   -2.1833   -0.3542    0.0000 C   0  0  0  0  0  0           0  0  0
    2.1792   -0.3250    0.0000 C   0  0  0  0  0  0           0  0  0
    2.1875   -1.3375    0.0000 C   0  0  0  0  0  0           0  0  0
   -2.1833   -1.3542    0.0000 C   0  0  0  0  0  0           0  0  0
   -1.7542   -1.1000    0.0000 C   0  0  0  0  0  0           0  0  0
    1.7500   -1.0833    0.0000 C   0  0  0  0  0  0           0  0  0
   -0.0083   -1.0917    0.0000 C   0  0  0  0  0  0           0  0  0
   -1.7542   -0.6000    0.0000 C   0  0  0  0  0  0           0  0  0
    1.7458   -0.5792    0.0000 C   0  0  0  0  0  0           0  0  0
   -4.8125    1.1750    0.0000 C   0  0  0  0  0  0           0  0  0
    4.8083    1.2208    0.0000 C   0  0  0  0  0  0           0  0  0
   -5.2542    0.9208    0.0000 N   0  0  0  0  0  0           0  0  0
    5.2500    0.9625    0.0000 N   0  0  0  0  0  0           0  0  0
   -3.0542    0.1625    0.0000 N   0  0  0  0  0  0           0  0  0
    3.0542    0.1917    0.0000 N   0  0  0  0  0  0           0  0  0
   -5.7000    1.6833    0.0000 C   0  0  0  0  0  0           0  0  0
    5.6958    1.7292    0.0000 C   0  0  0  0  0  0           0  0  0
    5.6917    1.2208    0.0000 C   0  0  3  0  0  0           0  0  0
   -5.6958    1.1708    0.0000 C   0  0  3  0  0  0           0  0  0
    0.4333   -1.3458    0.0000 N   0  0  0  0  0  0           0  0  0
   -0.4458   -1.3500    0.0000 N   0  0  0  0  0  0           0  0  0
   -3.4875   -0.9583    0.0000 O   0  0  0  0  0  0           0  0  0
    3.4292   -0.9708    0.0000 O   0  0  0  0  0  0           0  0  0
    2.6792   -1.7583    0.0000 O   0  0  0  0  0  0           0  0  0
   -2.6208   -1.8208    0.0000 O   0  0  0  0  0  0           0  0  0
   -1.3208   -0.3500    0.0000 C   0  0  0  0  0  0           0  0  0
    1.3000   -0.3292    0.0000 C   0  0  0  0  0  0           0  0  0
   -4.3708    0.9208    0.0000 C   0  0  0  0  0  0           0  0  0
    4.3667    0.9667    0.0000 C   0  0  0  0  0  0           0  0  0
   -1.3208   -1.3458    0.0000 C   0  0  0  0  0  0           0  0  0
    1.3083   -1.3417    0.0000 C   0  0  0  0  0  0           0  0  0
   -5.6958    0.1500    0.0000 C   0  0  0  0  0  0           0  0  0
    5.6917    0.2000    0.0000 C   0  0  0  0  0  0           0  0  0
    0.8708   -1.0875    0.0000 C   0  0  0  0  0  0           0  0  0
   -0.8875   -1.1000    0.0000 C   0  0  0  0  0  0           0  0  0
   -0.0125   -0.5833    0.0000 O   0  0  0  0  0  0           0  0  0
    4.8083    1.7333    0.0000 O   0  0  0  0  0  0           0  0  0
   -4.8125    1.6833    0.0000 O   0  0  0  0  0  0           0  0  0
    3.4875   -1.6042    0.0000 O   0  0  0  0  0  0           0  0  0
   -3.4875   -1.7458    0.0000 O   0  0  0  0  0  0           0  0  0
    5.2542    1.9833    0.0000 O   0  0  0  0  0  0           0  0  0
   -5.2583    1.9417    0.0000 O   0  0  0  0  0  0           0  0  0
   -5.6917   -0.3583    0.0000 O   0  0  0  0  0  0           0  0  0
    5.6875   -0.3125    0.0000 O   0  0  0  0  0  0           0  0  0
   -6.1292    0.9167    0.0000 C   0  0  0  0  0  0           0  0  0
    6.1333    0.9625    0.0000 C   0  0  0  0  0  0           0  0  0
    4.3667    0.4583    0.0000 C   0  0  0  0  0  0           0  0  0
    3.9208    1.2167    0.0000 C   0  0  0  0  0  0           0  0  0
   -3.4917    0.4125    0.0000 C   0  0  0  0  0  0           0  0  0
   -3.9292    1.1750    0.0000 C   0  0  0  0  0  0           0  0  0
    3.4917    0.4500    0.0000 C   0  0  0  0  0  0           0  0  0
   -4.3667    0.4083    0.0000 C   0  0  0  0  0  0           0  0  0
   -2.1833    0.1458    0.0000 O   0  0  0  0  0  0           0  0  0
    2.1792    0.1833    0.0000 O   0  0  0  0  0  0           0  0  0
    0.8625   -0.5833    0.0000 C   0  0  0  0  0  0           0  0  0
   -0.8917   -0.5958    0.0000 C   0  0  0  0  0  0           0  0  0
    6.1333    0.4542    0.0000 C   0  0  0  0  0  0           0  0  0
   -6.1292    0.4042    0.0000 C   0  0  0  0  0  0           0  0  0
    6.1375    1.9833    0.0000 O   0  0  0  0  0  0           0  0  0
   -6.1375    1.9375    0.0000 O   0  0  0  0  0  0           0  0  0
    5.2500    0.4542    0.0000 O   0  0  0  0  0  0           0  0  0
   -5.2542    0.4083    0.0000 O   0  0  0  0  0  0           0  0  0
    3.4833    0.9583    0.0000 C   0  0  0  0  0  0           0  0  0
   -3.9292    0.1625    0.0000 C   0  0  0  0  0  0           0  0  0
   -3.4917    0.9208    0.0000 C   0  0  0  0  0  0           0  0  0
    3.9333    0.2000    0.0000 C   0  0  0  0  0  0           0  0  0
  2 11  1  0     0  0
  3  1  1  0     0  0
  4  2  1  0     0  0
  5 10  1  0     0  0
  6  1  2  0     0  0
  7  6  1  0     0  0
  8  5  1  0     0  0
  9  6  1  0     0  0
 10 17  2  0     0  0
 11 14  2  0     0  0
 12  1  1  0     0  0
 13 12  2  0     0  0
 14 39  1  0     0  0
 15 29  1  0     0  0
 16  9  2  0     0  0
 17 35  1  0     0  0
 18 36  1  0     0  0
 19 37  1  0     0  0
 20 18  1  0     0  0
 21 19  1  0     0  0
 22  7  2  0     0  0
 23  8  2  0     0  0
 24 27  1  0     0  0
 25 26  1  0     0  0
 26 21  1  0     0  0
 27 20  1  0     0  0
 28 15  1  0     0  0
 29 43  1  0     0  0
 30  3  2  0     0  0
 31  4  2  0     0  0
 32  4  2  0     0  0
 33  3  2  0     0  0
 34 16  1  0     0  0
 35 63  2  0     0  0
 36 60  1  0     0  0
 37 56  1  0     0  0
 38 13  1  0     0  0
 39 42  2  0     0  0
 40 66  1  0     0  0
 41 65  1  0     0  0
 42 28  1  0     0  0
 43 38  2  0     0  0
 44 15  2  0     0  0
 45 19  2  0     0  0
 46 18  2  0     0  0
 47  4  1  0     0  0
 48  3  1  0     0  0
 49 25  2  0     0  0
 50 24  2  0     0  0
 51 40  2  0     0  0
 52 41  2  0     0  0
 53 27  1  0     0  0
 54 26  1  0     0  0
 55 74  1  0     0  0
 56 71  2  0     0  0
 57 22  1  0     0  0
 58 73  1  0     0  0
 59 23  1  0     0  0
 60 72  2  0     0  0
 61  9  1  0     0  0
 62 10  1  0     0  0
 63 42  1  0     0  0
 64 34  2  0     0  0
 65 54  1  0     0  0
 66 53  1  0     0  0
 67 25  1  0     0  0
 68 24  1  0     0  0
 69 41  1  0     0  0
 70 40  1  0     0  0
 71 59  1  0     0  0
 72 57  1  0     0  0
 73 57  2  0     0  0
 74 59  2  0     0  0
 13 16  1  0     0  0
 43 64  1  0     0  0
 36 58  2  0     0  0
 17 14  1  0     0  0
  5  2  2  0     0  0
 37 55  2  0     0  0
M  END
>  <prID>
418

>  <IDDB>
104408

>  <pIC50_HIV_Integrase>
6.045757491

>  <Q>
-11.28532521

>  <Activity_Integrase>
Active_Integrase

NA
NA
NA
NA
$$$$

  Accelrys05311914302D 1   1.00000     0.00000     0

 60 67  0     0  0            999 V2000
   -3.0625   -1.1417    0.0000 C   0  0  0  0  0  0           0  0  0
    3.0750   -1.1167    0.0000 C   0  0  0  0  0  0           0  0  0
   -3.5625   -1.4375    0.0000 S   0  0  3  0  0  0           0  0  0
    3.5958   -1.4167    0.0000 S   0  0  3  0  0  0           0  0  0
    3.0750   -0.5208    0.0000 C   0  0  0  0  0  0           0  0  0
   -3.0625   -0.5583    0.0000 C   0  0  0  0  0  0           0  0  0
   -3.5792   -0.2583    0.0000 N   0  0  0  0  0  0           0  0  0
    3.5833   -0.2208    0.0000 N   0  0  0  0  0  0           0  0  0
   -2.5542   -0.2667    0.0000 C   0  0  0  0  0  0           0  0  0
    2.5583   -0.2333    0.0000 C   0  0  0  0  0  0           0  0  0
    2.5625   -1.4208    0.0000 C   0  0  0  0  0  0           0  0  0
   -2.5542   -1.4375    0.0000 C   0  0  0  0  0  0           0  0  0
   -2.0500   -1.1375    0.0000 C   0  0  0  0  0  0           0  0  0
    2.0542   -1.1292    0.0000 C   0  0  0  0  0  0           0  0  0
   -0.0083   -1.1333    0.0000 C   0  0  0  0  0  0           0  0  0
   -2.0500   -0.5583    0.0000 C   0  0  0  0  0  0           0  0  0
    2.0458   -0.5292    0.0000 C   0  0  0  0  0  0           0  0  0
   -5.6292    1.5208    0.0000 O   0  0  0  0  0  0           0  0  0
    5.6208    1.5833    0.0000 O   0  0  0  0  0  0           0  0  0
   -5.6292    2.1083    0.0000 C   0  0  0  0  0  0           0  0  0
    5.6167    2.1792    0.0000 C   0  0  0  0  0  0           0  0  0
   -5.1208    1.2250    0.0000 C   0  0  0  0  0  0           0  0  0
    5.1167    1.2833    0.0000 C   0  0  0  0  0  0           0  0  0
    3.5792    0.3708    0.0000 N   0  0  0  0  0  0           0  0  0
   -3.5792    0.3375    0.0000 N   0  0  0  0  0  0           0  0  0
    4.6000    1.5708    0.0000 C   0  0  0  0  0  0           0  0  0
   -4.6000    1.5208    0.0000 C   0  0  0  0  0  0           0  0  0
   -4.6000    2.1125    0.0000 C   0  0  0  0  0  0           0  0  0
    4.5833    2.1625    0.0000 C   0  0  0  0  0  0           0  0  0
    5.1000    2.4667    0.0000 C   0  0  0  0  0  0           0  0  0
   -5.1167    2.4125    0.0000 C   0  0  0  0  0  0           0  0  0
    0.5042   -1.4333    0.0000 N   0  0  0  0  0  0           0  0  0
   -0.5208   -1.4333    0.0000 N   0  0  0  0  0  0           0  0  0
    3.1375   -1.9125    0.0000 O   0  0  0  0  0  0           0  0  0
   -3.0708   -1.9875    0.0000 O   0  0  0  0  0  0           0  0  0
   -4.0833   -0.9750    0.0000 O   0  0  0  0  0  0           0  0  0
    4.0167   -0.9917    0.0000 O   0  0  0  0  0  0           0  0  0
    1.5250   -0.2375    0.0000 C   0  0  0  0  0  0           0  0  0
   -1.5458   -0.2583    0.0000 C   0  0  0  0  0  0           0  0  0
    1.5333   -1.4250    0.0000 C   0  0  0  0  0  0           0  0  0
   -1.5417   -1.4333    0.0000 C   0  0  0  0  0  0           0  0  0
    1.0167   -1.1292    0.0000 C   0  0  0  0  0  0           0  0  0
   -1.0417   -1.1375    0.0000 C   0  0  0  0  0  0           0  0  0
   -0.0125   -0.5375    0.0000 O   0  0  0  0  0  0           0  0  0
    4.0833   -1.7375    0.0000 O   0  0  0  0  0  0           0  0  0
   -4.0875   -1.9000    0.0000 O   0  0  0  0  0  0           0  0  0
   -4.0875    1.2208    0.0000 C   0  0  0  0  0  0           0  0  0
    4.0833    1.2667    0.0000 C   0  0  0  0  0  0           0  0  0
   -6.1375    2.4125    0.0000 O   0  0  0  0  0  0           0  0  0
    6.1333    2.4875    0.0000 O   0  0  0  0  0  0           0  0  0
   -4.0875    0.6333    0.0000 C   0  0  0  0  0  0           0  0  0
    4.0917    0.6750    0.0000 C   0  0  0  0  0  0           0  0  0
   -5.1167    0.6250    0.0000 C   0  0  0  0  0  0           0  0  0
    5.1167    0.6833    0.0000 C   0  0  0  0  0  0           0  0  0
   -2.5625    0.3167    0.0000 O   0  0  0  0  0  0           0  0  0
    2.5542    0.3625    0.0000 O   0  0  0  0  0  0           0  0  0
   -1.0417   -0.5500    0.0000 C   0  0  0  0  0  0           0  0  0
    1.0125   -0.5375    0.0000 C   0  0  0  0  0  0           0  0  0
   -4.6000    0.3333    0.0000 C   0  0  0  0  0  0           0  0  0
    4.6042    0.3792    0.0000 C   0  0  0  0  0  0           0  0  0
  2 11  1  0     0  0
  3  1  1  0     0  0
  4  2  1  0     0  0
  5 10  1  0     0  0
  6  1  2  0     0  0
  7  6  1  0     0  0
  8  5  1  0     0  0
  9  6  1  0     0  0
 10 17  2  0     0  0
 11 14  2  0     0  0
 12  1  1  0     0  0
 13 12  2  0     0  0
 14 40  1  0     0  0
 15 33  1  0     0  0
 16  9  2  0     0  0
 17 38  1  0     0  0
 18 22  1  0     0  0
 19 23  1  0     0  0
 20 18  1  0     0  0
 21 19  1  0     0  0
 22 53  1  0     0  0
 23 54  2  0     0  0
 24  8  2  0     0  0
 25  7  2  0     0  0
 26 48  2  0     0  0
 27 47  1  0     0  0
 28 27  1  0     0  0
 29 26  1  0     0  0
 30 29  2  0     0  0
 31 28  2  0     0  0
 32 15  1  0     0  0
 33 43  1  0     0  0
 34  4  2  0     0  0
 35  3  2  0     0  0
 36  3  2  0     0  0
 37  4  2  0     0  0
 38 58  2  0     0  0
 39 16  1  0     0  0
 40 42  2  0     0  0
 41 13  1  0     0  0
 42 32  1  0     0  0
 43 41  2  0     0  0
 44 15  2  0     0  0
 45  4  1  0     0  0
 46  3  1  0     0  0
 47 51  2  0     0  0
 48 52  1  0     0  0
 49 20  2  0     0  0
 50 21  2  0     0  0
 51 25  1  0     0  0
 52 24  1  0     0  0
 53 59  2  0     0  0
 54 60  1  0     0  0
 55  9  1  0     0  0
 56 10  1  0     0  0
 57 39  2  0     0  0
 58 42  1  0     0  0
 59 51  1  0     0  0
 60 52  2  0     0  0
 13 16  1  0     0  0
 43 57  1  0     0  0
 22 27  2  0     0  0
 20 31  1  0     0  0
 17 14  1  0     0  0
  5  2  2  0     0  0
 23 26  1  0     0  0
 21 30  1  0     0  0
M  END
>  <prID>
419

>  <IDDB>
104410

>  <pIC50_HIV_Integrase>
6

>  <Q>
-5.13849795

>  <Activity_Integrase>
Inactive_Integrase

NA
NA
NA
NA
$$$$

  Accelrys05311914302D 1   1.00000     0.00000     0

 64 69  0     0  0            999 V2000
   -3.0542   -0.9958    0.0000 C   0  0  0  0  0  0           0  0  0
    3.0667   -0.9750    0.0000 C   0  0  0  0  0  0           0  0  0
   -3.5583   -1.2875    0.0000 S   0  0  3  0  0  0           0  0  0
    3.5833   -1.2667    0.0000 S   0  0  3  0  0  0           0  0  0
    3.0625   -0.3792    0.0000 C   0  0  0  0  0  0           0  0  0
   -3.0542   -0.4125    0.0000 C   0  0  0  0  0  0           0  0  0
   -4.5917    0.4792    0.0000 C   0  0  0  0  0  0           0  0  0
    4.5958    0.5208    0.0000 C   0  0  0  0  0  0           0  0  0
    3.5750   -0.0792    0.0000 N   0  0  0  0  0  0           0  0  0
   -3.5667   -0.1167    0.0000 N   0  0  0  0  0  0           0  0  0
    2.5500   -0.0875    0.0000 C   0  0  0  0  0  0           0  0  0
   -2.5500   -0.1167    0.0000 C   0  0  0  0  0  0           0  0  0
    4.0792    0.8208    0.0000 C   0  0  0  0  0  0           0  0  0
   -4.0833    0.7750    0.0000 C   0  0  0  0  0  0           0  0  0
    2.5583   -1.2750    0.0000 C   0  0  0  0  0  0           0  0  0
   -2.5500   -1.2875    0.0000 C   0  0  0  0  0  0           0  0  0
   -2.0500   -0.9917    0.0000 C   0  0  0  0  0  0           0  0  0
    2.0375   -0.9792    0.0000 C   0  0  0  0  0  0           0  0  0
   -3.5667    0.4833    0.0000 N   0  0  0  0  0  0           0  0  0
    3.5708    0.5167    0.0000 N   0  0  0  0  0  0           0  0  0
   -0.0125   -0.9833    0.0000 C   0  0  0  0  0  0           0  0  0
    2.0375   -0.3833    0.0000 C   0  0  0  0  0  0           0  0  0
   -2.0500   -0.4083    0.0000 C   0  0  0  0  0  0           0  0  0
   -5.1042    0.7708    0.0000 C   0  0  0  0  0  0           0  0  0
    5.1042    0.8250    0.0000 C   0  0  0  0  0  0           0  0  0
   -4.5833   -0.1167    0.0000 C   0  0  0  0  0  0           0  0  0
    4.6000   -0.0750    0.0000 C   0  0  0  0  0  0           0  0  0
   -4.0792    1.3667    0.0000 C   0  0  0  0  0  0           0  0  0
    4.0750    1.4083    0.0000 C   0  0  0  0  0  0           0  0  0
   -5.1042    1.3667    0.0000 C   0  0  0  0  0  0           0  0  0
    5.1000    1.4208    0.0000 C   0  0  0  0  0  0           0  0  0
    4.5833    1.7125    0.0000 C   0  0  0  0  0  0           0  0  0
   -4.5917    1.6625    0.0000 C   0  0  0  0  0  0           0  0  0
    0.5042   -1.2792    0.0000 N   0  0  0  0  0  0           0  0  0
   -0.5208   -1.2833    0.0000 N   0  0  0  0  0  0           0  0  0
   -3.0667   -1.8375    0.0000 O   0  0  0  0  0  0           0  0  0
   -4.0750   -0.8250    0.0000 O   0  0  0  0  0  0           0  0  0
    4.0042   -0.8417    0.0000 O   0  0  0  0  0  0           0  0  0
    3.1333   -1.7625    0.0000 O   0  0  0  0  0  0           0  0  0
   -1.5417   -0.1167    0.0000 C   0  0  0  0  0  0           0  0  0
    1.5167   -0.0917    0.0000 C   0  0  0  0  0  0           0  0  0
    1.5292   -1.2792    0.0000 C   0  0  0  0  0  0           0  0  0
   -1.5417   -1.2833    0.0000 C   0  0  0  0  0  0           0  0  0
   -1.0417   -0.9917    0.0000 C   0  0  0  0  0  0           0  0  0
    1.0167   -0.9792    0.0000 C   0  0  0  0  0  0           0  0  0
   -0.0125   -0.3917    0.0000 O   0  0  0  0  0  0           0  0  0
   -4.0750   -1.7458    0.0000 O   0  0  0  0  0  0           0  0  0
    4.0750   -1.5833    0.0000 O   0  0  0  0  0  0           0  0  0
   -4.0708   -0.4167    0.0000 O   0  0  0  0  0  0           0  0  0
    4.0875   -0.3750    0.0000 O   0  0  0  0  0  0           0  0  0
   -2.5542    0.4625    0.0000 O   0  0  0  0  0  0           0  0  0
    2.5458    0.5042    0.0000 O   0  0  0  0  0  0           0  0  0
    1.0083   -0.3917    0.0000 C   0  0  0  0  0  0           0  0  0
   -1.0417   -0.4042    0.0000 C   0  0  0  0  0  0           0  0  0
    5.1167   -0.3667    0.0000 O   0  0  0  0  0  0           0  0  0
   -5.1042   -0.4167    0.0000 O   0  0  0  0  0  0           0  0  0
   -5.6208    1.6625    0.0000 O   0  0  0  0  0  0           0  0  0
    5.6167    1.7250    0.0000 O   0  0  0  0  0  0           0  0  0
    4.5708    2.3042    0.0000 O   0  0  0  0  0  0           0  0  0
   -4.5917    2.2583    0.0000 O   0  0  0  0  0  0           0  0  0
   -6.1375    1.3667    0.0000 C   0  0  0  0  0  0           0  0  0
   -4.0792    2.5583    0.0000 C   0  0  0  0  0  0           0  0  0
    4.0500    2.5958    0.0000 C   0  0  0  0  0  0           0  0  0
    6.1375    1.4333    0.0000 C   0  0  0  0  0  0           0  0  0
  2 15  1  0     0  0
  3  1  1  0     0  0
  4  2  1  0     0  0
  5 11  1  0     0  0
  6  1  2  0     0  0
  7 14  1  0     0  0
  8 13  2  0     0  0
  9  5  1  0     0  0
 10  6  1  0     0  0
 11 22  2  0     0  0
 12  6  1  0     0  0
 13 20  1  0     0  0
 14 19  1  0     0  0
 15 18  2  0     0  0
 16  1  1  0     0  0
 17 16  2  0     0  0
 18 42  1  0     0  0
 19 10  2  0     0  0
 20  9  2  0     0  0
 21 35  1  0     0  0
 22 41  1  0     0  0
 23 12  2  0     0  0
 24  7  2  0     0  0
 25  8  1  0     0  0
 26  7  1  0     0  0
 27  8  1  0     0  0
 28 14  2  0     0  0
 29 13  1  0     0  0
 30 33  2  0     0  0
 31 32  1  0     0  0
 32 29  2  0     0  0
 33 28  1  0     0  0
 34 21  1  0     0  0
 35 44  1  0     0  0
 36  3  2  0     0  0
 37  3  2  0     0  0
 38  4  2  0     0  0
 39  4  2  0     0  0
 40 23  1  0     0  0
 41 53  2  0     0  0
 42 45  2  0     0  0
 43 17  1  0     0  0
 44 43  2  0     0  0
 45 34  1  0     0  0
 46 21  2  0     0  0
 47  3  1  0     0  0
 48  4  1  0     0  0
 49 26  2  0     0  0
 50 27  2  0     0  0
 51 12  1  0     0  0
 52 11  1  0     0  0
 53 45  1  0     0  0
 54 40  2  0     0  0
 55 27  1  0     0  0
 56 26  1  0     0  0
 57 30  1  0     0  0
 58 31  1  0     0  0
 59 32  1  0     0  0
 60 33  1  0     0  0
 61 57  1  0     0  0
 62 60  1  0     0  0
 63 59  1  0     0  0
 64 58  1  0     0  0
 23 17  1  0     0  0
 54 44  1  0     0  0
 30 24  1  0     0  0
 22 18  1  0     0  0
  5  2  2  0     0  0
 31 25  2  0     0  0
M  END
>  <prID>
420

>  <IDDB>
104411

>  <pIC50_HIV_Integrase>
5.698970004

>  <Q>
-7.108583175

>  <Activity_Integrase>
Inactive_Integrase

NA
NA
NA
NA
$$$$

  Accelrys05311914302D 1   1.00000     0.00000     0

 50 55  0     0  0            999 V2000
   -3.6750   -0.8625    0.0000 C   0  0  0  0  0  0           0  0  0
    3.6917   -0.8375    0.0000 C   0  0  0  0  0  0           0  0  0
   -4.2708   -1.2125    0.0000 S   0  0  3  0  0  0           0  0  0
    4.3125   -1.1875    0.0000 S   0  0  3  0  0  0           0  0  0
    3.6792   -0.1167    0.0000 C   0  0  0  0  0  0           0  0  0
   -3.6750   -0.1542    0.0000 C   0  0  0  0  0  0           0  0  0
   -4.2917    0.2000    0.0000 N   0  0  0  0  0  0           0  0  0
    4.3000    0.2500    0.0000 N   0  0  0  0  0  0           0  0  0
   -3.0625    0.2000    0.0000 C   0  0  0  0  0  0           0  0  0
    3.0667    0.2375    0.0000 C   0  0  0  0  0  0           0  0  0
    3.0708   -1.1958    0.0000 C   0  0  0  0  0  0           0  0  0
   -3.0625   -1.2125    0.0000 C   0  0  0  0  0  0           0  0  0
   -2.4542   -0.8625    0.0000 C   0  0  0  0  0  0           0  0  0
    2.4542   -0.8417    0.0000 C   0  0  0  0  0  0           0  0  0
   -0.0042   -0.8500    0.0000 C   0  0  0  0  0  0           0  0  0
   -2.4625   -0.1500    0.0000 C   0  0  0  0  0  0           0  0  0
    2.4542   -0.1208    0.0000 C   0  0  0  0  0  0           0  0  0
   -4.2917    0.9250    0.0000 N   0  0  0  0  0  0           0  0  0
    4.3000    0.9750    0.0000 N   0  0  0  0  0  0           0  0  0
    0.6083   -1.2083    0.0000 N   0  0  0  0  0  0           0  0  0
   -0.6250   -1.2167    0.0000 N   0  0  0  0  0  0           0  0  0
   -4.9000   -0.6500    0.0000 O   0  0  0  0  0  0           0  0  0
    4.8167   -0.6708    0.0000 O   0  0  0  0  0  0           0  0  0
    3.7667   -1.7958    0.0000 O   0  0  0  0  0  0           0  0  0
   -3.6833   -1.8833    0.0000 O   0  0  0  0  0  0           0  0  0
   -1.8625    0.2042    0.0000 C   0  0  0  0  0  0           0  0  0
    1.8333    0.2333    0.0000 C   0  0  0  0  0  0           0  0  0
   -1.8458   -1.2125    0.0000 C   0  0  0  0  0  0           0  0  0
    1.8375   -1.2042    0.0000 C   0  0  0  0  0  0           0  0  0
    1.2167   -0.8375    0.0000 C   0  0  0  0  0  0           0  0  0
   -1.2458   -0.8583    0.0000 C   0  0  0  0  0  0           0  0  0
   -0.0167   -0.1375    0.0000 O   0  0  0  0  0  0           0  0  0
    4.9042   -1.5792    0.0000 O   0  0  0  0  0  0           0  0  0
   -4.9625   -1.8917    0.0000 O   0  0  0  0  0  0           0  0  0
   -3.0667    0.9000    0.0000 O   0  0  0  0  0  0           0  0  0
    3.0625    0.9542    0.0000 O   0  0  0  0  0  0           0  0  0
   -1.2458   -0.1458    0.0000 C   0  0  0  0  0  0           0  0  0
    1.2167   -0.1292    0.0000 C   0  0  0  0  0  0           0  0  0
   -4.9042    1.2833    0.0000 C   0  0  0  0  0  0           0  0  0
    4.9083    1.3333    0.0000 C   0  0  0  0  0  0           0  0  0
   -4.9042    2.0042    0.0000 C   0  0  0  0  0  0           0  0  0
   -5.5208    0.9208    0.0000 C   0  0  0  0  0  0           0  0  0
    5.5250    0.9792    0.0000 C   0  0  0  0  0  0           0  0  0
    4.9042    2.0500    0.0000 C   0  0  0  0  0  0           0  0  0
   -6.1292    1.2708    0.0000 C   0  0  0  0  0  0           0  0  0
   -5.5208    2.3583    0.0000 C   0  0  0  0  0  0           0  0  0
    6.1417    1.3417    0.0000 C   0  0  0  0  0  0           0  0  0
    5.5125    2.4208    0.0000 C   0  0  0  0  0  0           0  0  0
   -6.1292    2.0042    0.0000 C   0  0  0  0  0  0           0  0  0
    6.1375    2.0667    0.0000 C   0  0  0  0  0  0           0  0  0
  2 11  1  0     0  0
  3  1  1  0     0  0
  4  2  1  0     0  0
  5 10  1  0     0  0
  6  1  2  0     0  0
  7  6  1  0     0  0
  8  5  1  0     0  0
  9  6  1  0     0  0
 10 17  2  0     0  0
 11 14  2  0     0  0
 12  1  1  0     0  0
 13 12  2  0     0  0
 14 29  1  0     0  0
 15 21  1  0     0  0
 16  9  2  0     0  0
 17 27  1  0     0  0
 18  7  2  0     0  0
 19  8  2  0     0  0
 20 15  1  0     0  0
 21 31  1  0     0  0
 22  3  2  0     0  0
 23  4  2  0     0  0
 24  4  2  0     0  0
 25  3  2  0     0  0
 26 16  1  0     0  0
 27 38  2  0     0  0
 28 13  1  0     0  0
 29 30  2  0     0  0
 30 20  1  0     0  0
 31 28  2  0     0  0
 32 15  2  0     0  0
 33  4  1  0     0  0
 34  3  1  0     0  0
 35  9  1  0     0  0
 36 10  1  0     0  0
 37 26  2  0     0  0
 38 30  1  0     0  0
 39 18  1  0     0  0
 40 19  1  0     0  0
 41 39  2  0     0  0
 42 39  1  0     0  0
 43 40  2  0     0  0
 44 40  1  0     0  0
 45 42  2  0     0  0
 46 41  1  0     0  0
 47 43  1  0     0  0
 48 44  2  0     0  0
 49 45  1  0     0  0
 50 48  1  0     0  0
 13 16  1  0     0  0
 31 37  1  0     0  0
 49 46  2  0     0  0
 17 14  1  0     0  0
  5  2  2  0     0  0
 50 47  2  0     0  0
M  END
>  <prID>
421

>  <IDDB>
104484

>  <pIC50_HIV_Integrase>
6

>  <Q>
-4.263888207

>  <Activity_Integrase>
Inactive_Integrase

NA
NA
NA
NA
$$$$

  Accelrys05311914302D 1   1.00000     0.00000     0

 48 53  0     0  0            999 V2000
   -3.7833   -0.8292    0.0000 C   0  0  0  0  0  0           0  0  0
    3.8000   -0.8042    0.0000 C   0  0  0  0  0  0           0  0  0
   -4.4042   -1.1917    0.0000 S   0  0  3  0  0  0           0  0  0
    4.4417   -1.1708    0.0000 S   0  0  3  0  0  0           0  0  0
    3.7917   -0.0583    0.0000 C   0  0  0  0  0  0           0  0  0
   -3.7833   -0.1042    0.0000 C   0  0  0  0  0  0           0  0  0
   -5.0125    1.4375    0.0000 C   0  0  0  0  0  0           0  0  0
    5.0125    1.5000    0.0000 C   0  0  0  0  0  0           0  0  0
   -5.0208    2.1583    0.0000 N   0  0  0  0  0  0           0  0  0
    5.0000    2.2375    0.0000 N   0  0  0  0  0  0           0  0  0
   -4.4208    0.2667    0.0000 N   0  0  0  0  0  0           0  0  0
    4.4208    0.3125    0.0000 N   0  0  0  0  0  0           0  0  0
   -3.1583    0.2625    0.0000 C   0  0  0  0  0  0           0  0  0
    3.1583    0.3042    0.0000 C   0  0  0  0  0  0           0  0  0
    3.1625   -1.1750    0.0000 C   0  0  0  0  0  0           0  0  0
   -3.1542   -1.1917    0.0000 C   0  0  0  0  0  0           0  0  0
   -2.5292   -0.8292    0.0000 C   0  0  0  0  0  0           0  0  0
    2.5292   -0.8125    0.0000 C   0  0  0  0  0  0           0  0  0
   -0.0083   -0.8208    0.0000 C   0  0  0  0  0  0           0  0  0
   -2.5333   -0.1000    0.0000 C   0  0  0  0  0  0           0  0  0
    2.5292   -0.0708    0.0000 C   0  0  0  0  0  0           0  0  0
   -4.4208    1.0125    0.0000 N   0  0  0  0  0  0           0  0  0
    4.4208    1.0625    0.0000 N   0  0  0  0  0  0           0  0  0
   -6.1375    1.7833    0.0000 N   0  0  0  0  0  0           0  0  0
    6.1375    1.8875    0.0000 N   0  0  0  0  0  0           0  0  0
    5.7125    1.2875    0.0000 N   0  0  0  0  0  0           0  0  0
   -5.7083    1.1958    0.0000 N   0  0  0  0  0  0           0  0  0
    5.6917    2.4792    0.0000 C   0  0  0  0  0  0           0  0  0
   -5.7208    2.3792    0.0000 C   0  0  0  0  0  0           0  0  0
   -0.6417   -1.1917    0.0000 N   0  0  0  0  0  0           0  0  0
    0.6250   -1.1833    0.0000 N   0  0  0  0  0  0           0  0  0
    4.9583   -0.6333    0.0000 O   0  0  0  0  0  0           0  0  0
    3.8792   -1.7958    0.0000 O   0  0  0  0  0  0           0  0  0
   -5.0417   -0.6167    0.0000 O   0  0  0  0  0  0           0  0  0
   -3.7917   -1.8833    0.0000 O   0  0  0  0  0  0           0  0  0
    1.8875    0.2958    0.0000 C   0  0  0  0  0  0           0  0  0
   -1.9083    0.2708    0.0000 C   0  0  0  0  0  0           0  0  0
    1.8917   -1.1792    0.0000 C   0  0  0  0  0  0           0  0  0
   -1.9042   -1.1917    0.0000 C   0  0  0  0  0  0           0  0  0
   -1.2875   -0.8208    0.0000 C   0  0  0  0  0  0           0  0  0
    1.2583   -0.8125    0.0000 C   0  0  0  0  0  0           0  0  0
   -0.0167   -0.0792    0.0000 O   0  0  0  0  0  0           0  0  0
   -5.0417   -1.7750    0.0000 O   0  0  0  0  0  0           0  0  0
    5.0500   -1.5667    0.0000 O   0  0  0  0  0  0           0  0  0
    3.1583    1.0417    0.0000 O   0  0  0  0  0  0           0  0  0
   -3.1583    0.9833    0.0000 O   0  0  0  0  0  0           0  0  0
    1.2542   -0.0792    0.0000 C   0  0  0  0  0  0           0  0  0
   -1.2875   -0.0958    0.0000 C   0  0  0  0  0  0           0  0  0
  2 15  1  0     0  0
  3  1  1  0     0  0
  4  2  1  0     0  0
  5 14  1  0     0  0
  6  1  2  0     0  0
  7 22  1  0     0  0
  8 23  1  0     0  0
  9  7  2  0     0  0
 10  8  2  0     0  0
 11  6  1  0     0  0
 12  5  1  0     0  0
 13  6  1  0     0  0
 14 21  2  0     0  0
 15 18  2  0     0  0
 16  1  1  0     0  0
 17 16  2  0     0  0
 18 38  1  0     0  0
 19 30  1  0     0  0
 20 13  2  0     0  0
 21 36  1  0     0  0
 22 11  2  0     0  0
 23 12  2  0     0  0
 24 27  1  0     0  0
 25 26  1  0     0  0
 26  8  1  0     0  0
 27  7  1  0     0  0
 28 10  1  0     0  0
 29  9  1  0     0  0
 30 40  1  0     0  0
 31 19  1  0     0  0
 32  4  2  0     0  0
 33  4  2  0     0  0
 34  3  2  0     0  0
 35  3  2  0     0  0
 36 47  2  0     0  0
 37 20  1  0     0  0
 38 41  2  0     0  0
 39 17  1  0     0  0
 40 39  2  0     0  0
 41 31  1  0     0  0
 42 19  2  0     0  0
 43  3  1  0     0  0
 44  4  1  0     0  0
 45 14  1  0     0  0
 46 13  1  0     0  0
 47 41  1  0     0  0
 48 37  2  0     0  0
 17 20  1  0     0  0
 40 48  1  0     0  0
 24 29  2  0     0  0
 21 18  1  0     0  0
  5  2  2  0     0  0
 25 28  2  0     0  0
M  END
>  <prID>
422

>  <IDDB>
104486

>  <pIC50_HIV_Integrase>
6.301029996

>  <Q>
-7.396340819

>  <Activity_Integrase>
Active_Integrase

NA
NA
NA
NA
$$$$

  Accelrys05311914302D 1   1.00000     0.00000     0

 62 67  0     0  0            999 V2000
   -3.0500   -1.0708    0.0000 C   0  0  0  0  0  0           0  0  0
    3.0583   -1.0500    0.0000 C   0  0  0  0  0  0           0  0  0
   -3.5458   -1.3583    0.0000 S   0  0  3  0  0  0           0  0  0
    3.5792   -1.3417    0.0000 S   0  0  3  0  0  0           0  0  0
    3.0583   -0.4500    0.0000 C   0  0  0  0  0  0           0  0  0
   -3.0500   -0.4833    0.0000 C   0  0  0  0  0  0           0  0  0
   -3.5625   -0.1833    0.0000 N   0  0  0  0  0  0           0  0  0
    3.5625   -0.1500    0.0000 N   0  0  0  0  0  0           0  0  0
   -2.5417   -0.1875    0.0000 C   0  0  0  0  0  0           0  0  0
    2.5417   -0.1583    0.0000 C   0  0  0  0  0  0           0  0  0
    2.5500   -1.3458    0.0000 C   0  0  0  0  0  0           0  0  0
   -2.5417   -1.3625    0.0000 C   0  0  0  0  0  0           0  0  0
   -2.0417   -1.0708    0.0000 C   0  0  0  0  0  0           0  0  0
    2.0375   -1.0583    0.0000 C   0  0  0  0  0  0           0  0  0
   -0.0083   -1.0625    0.0000 C   0  0  0  0  0  0           0  0  0
   -2.0417   -0.4792    0.0000 C   0  0  0  0  0  0           0  0  0
    2.0375   -0.4583    0.0000 C   0  0  0  0  0  0           0  0  0
   -5.1083    1.3042    0.0000 C   0  0  0  0  0  0           0  0  0
    5.1042    1.3500    0.0000 C   0  0  0  0  0  0           0  0  0
   -4.5917    1.6042    0.0000 C   0  0  0  0  0  0           0  0  0
    5.1042    0.7542    0.0000 C   0  0  0  0  0  0           0  0  0
    4.5833    1.6458    0.0000 C   0  0  0  0  0  0           0  0  0
   -5.1083    0.7083    0.0000 C   0  0  0  0  0  0           0  0  0
    3.5625    0.4542    0.0000 N   0  0  0  0  0  0           0  0  0
   -3.5625    0.4208    0.0000 N   0  0  0  0  0  0           0  0  0
    4.0792    1.3417    0.0000 C   0  0  0  0  0  0           0  0  0
   -4.0792    1.3042    0.0000 C   0  0  0  0  0  0           0  0  0
   -4.5875    0.4125    0.0000 C   0  0  0  0  0  0           0  0  0
    4.5917    0.4542    0.0000 C   0  0  0  0  0  0           0  0  0
    0.5000   -1.3542    0.0000 N   0  0  0  0  0  0           0  0  0
   -0.5208   -1.3625    0.0000 N   0  0  0  0  0  0           0  0  0
    4.0792    0.7542    0.0000 C   0  0  0  0  0  0           0  0  0
   -4.0792    0.7125    0.0000 C   0  0  0  0  0  0           0  0  0
    3.1250   -1.8458    0.0000 O   0  0  0  0  0  0           0  0  0
   -3.0625   -1.9208    0.0000 O   0  0  0  0  0  0           0  0  0
   -4.0625   -0.8958    0.0000 O   0  0  0  0  0  0           0  0  0
    3.9958   -0.9125    0.0000 O   0  0  0  0  0  0           0  0  0
   -1.5417   -0.1833    0.0000 C   0  0  0  0  0  0           0  0  0
    1.5167   -0.1625    0.0000 C   0  0  0  0  0  0           0  0  0
    1.5208   -1.3542    0.0000 C   0  0  0  0  0  0           0  0  0
   -1.5375   -1.3583    0.0000 C   0  0  0  0  0  0           0  0  0
   -1.0375   -1.0625    0.0000 C   0  0  0  0  0  0           0  0  0
    1.0125   -1.0542    0.0000 C   0  0  0  0  0  0           0  0  0
   -0.0167   -0.4667    0.0000 O   0  0  0  0  0  0           0  0  0
    4.0667   -1.6625    0.0000 O   0  0  0  0  0  0           0  0  0
   -4.0667   -1.8292    0.0000 O   0  0  0  0  0  0           0  0  0
   -2.5458    0.3958    0.0000 O   0  0  0  0  0  0           0  0  0
    2.5417    0.4417    0.0000 O   0  0  0  0  0  0           0  0  0
    1.0083   -0.4625    0.0000 C   0  0  0  0  0  0           0  0  0
   -1.0375   -0.4792    0.0000 C   0  0  0  0  0  0           0  0  0
   -5.6208    1.6000    0.0000 O   0  0  0  0  0  0           0  0  0
    5.6167    1.6500    0.0000 O   0  0  0  0  0  0           0  0  0
   -4.5875    2.2000    0.0000 O   0  0  0  0  0  0           0  0  0
    5.6208    0.4583    0.0000 O   0  0  0  0  0  0           0  0  0
    4.5792    2.2417    0.0000 O   0  0  0  0  0  0           0  0  0
   -5.6208    0.4083    0.0000 O   0  0  0  0  0  0           0  0  0
   -6.1333    1.3042    0.0000 C   0  0  0  0  0  0           0  0  0
    6.1375    1.3542    0.0000 C   0  0  0  0  0  0           0  0  0
   -6.1333    0.7042    0.0000 C   0  0  0  0  0  0           0  0  0
    6.1375    0.7583    0.0000 C   0  0  0  0  0  0           0  0  0
    4.0625    2.5375    0.0000 C   0  0  0  0  0  0           0  0  0
   -4.0792    2.4958    0.0000 C   0  0  0  0  0  0           0  0  0
  2 11  1  0     0  0
  3  1  1  0     0  0
  4  2  1  0     0  0
  5 10  1  0     0  0
  6  1  2  0     0  0
  7  6  1  0     0  0
  8  5  1  0     0  0
  9  6  1  0     0  0
 10 17  2  0     0  0
 11 14  2  0     0  0
 12  1  1  0     0  0
 13 12  2  0     0  0
 14 40  1  0     0  0
 15 31  1  0     0  0
 16  9  2  0     0  0
 17 39  1  0     0  0
 18 23  1  0     0  0
 19 22  1  0     0  0
 20 27  1  0     0  0
 21 29  1  0     0  0
 22 26  2  0     0  0
 23 28  2  0     0  0
 24  8  2  0     0  0
 25  7  2  0     0  0
 26 32  1  0     0  0
 27 33  2  0     0  0
 28 33  1  0     0  0
 29 32  2  0     0  0
 30 15  1  0     0  0
 31 42  1  0     0  0
 32 24  1  0     0  0
 33 25  1  0     0  0
 34  4  2  0     0  0
 35  3  2  0     0  0
 36  3  2  0     0  0
 37  4  2  0     0  0
 38 16  1  0     0  0
 39 49  2  0     0  0
 40 43  2  0     0  0
 41 13  1  0     0  0
 42 41  2  0     0  0
 43 30  1  0     0  0
 44 15  2  0     0  0
 45  4  1  0     0  0
 46  3  1  0     0  0
 47  9  1  0     0  0
 48 10  1  0     0  0
 49 43  1  0     0  0
 50 38  2  0     0  0
 51 18  1  0     0  0
 52 19  1  0     0  0
 53 20  1  0     0  0
 54 21  1  0     0  0
 55 22  1  0     0  0
 56 23  1  0     0  0
 57 51  1  0     0  0
 58 52  1  0     0  0
 59 56  1  0     0  0
 60 54  1  0     0  0
 61 55  1  0     0  0
 62 53  1  0     0  0
 13 16  1  0     0  0
 42 50  1  0     0  0
 18 20  2  0     0  0
 17 14  1  0     0  0
  5  2  2  0     0  0
 19 21  2  0     0  0
M  END
>  <prID>
423

>  <IDDB>
104487

>  <pIC50_HIV_Integrase>
6.301029996

>  <Q>
-5.718656563

>  <Activity_Integrase>
Active_Integrase

NA
NA
NA
NA
$$$$

  Accelrys05311914302D 1   1.00000     0.00000     0

 52 57  0     0  0            999 V2000
   -3.3292   -0.8667    0.0000 C   0  0  0  0  0  0           0  0  0
    3.3375   -0.8417    0.0000 C   0  0  0  0  0  0           0  0  0
   -3.8750   -1.1792    0.0000 S   0  0  3  0  0  0           0  0  0
    3.9042   -1.1625    0.0000 S   0  0  3  0  0  0           0  0  0
    3.3375   -0.1875    0.0000 C   0  0  0  0  0  0           0  0  0
   -3.3292   -0.2250    0.0000 C   0  0  0  0  0  0           0  0  0
   -3.8875    0.1000    0.0000 N   0  0  0  0  0  0           0  0  0
    3.8917    0.1417    0.0000 N   0  0  0  0  0  0           0  0  0
   -2.7792    0.1000    0.0000 C   0  0  0  0  0  0           0  0  0
    2.7792    0.1333    0.0000 C   0  0  0  0  0  0           0  0  0
    2.7792   -1.1667    0.0000 C   0  0  0  0  0  0           0  0  0
   -2.7792   -1.1792    0.0000 C   0  0  0  0  0  0           0  0  0
   -2.2292   -0.8667    0.0000 C   0  0  0  0  0  0           0  0  0
    2.2208   -0.8500    0.0000 C   0  0  0  0  0  0           0  0  0
   -0.0083   -0.8583    0.0000 C   0  0  0  0  0  0           0  0  0
   -2.2292   -0.2208    0.0000 C   0  0  0  0  0  0           0  0  0
    2.2250   -0.2000    0.0000 C   0  0  0  0  0  0           0  0  0
   -3.8875    0.7583    0.0000 N   0  0  0  0  0  0           0  0  0
    3.8917    0.8000    0.0000 N   0  0  0  0  0  0           0  0  0
    0.5500   -1.1792    0.0000 N   0  0  0  0  0  0           0  0  0
   -0.5667   -1.1792    0.0000 N   0  0  0  0  0  0           0  0  0
   -4.4417   -0.6750    0.0000 O   0  0  0  0  0  0           0  0  0
    4.3583   -0.6917    0.0000 O   0  0  0  0  0  0           0  0  0
    3.4125   -1.7125    0.0000 O   0  0  0  0  0  0           0  0  0
   -3.3417   -1.7958    0.0000 O   0  0  0  0  0  0           0  0  0
   -1.6833    0.1000    0.0000 C   0  0  0  0  0  0           0  0  0
    1.6583    0.1250    0.0000 C   0  0  0  0  0  0           0  0  0
   -1.6750   -1.1792    0.0000 C   0  0  0  0  0  0           0  0  0
    1.6625   -1.1750    0.0000 C   0  0  0  0  0  0           0  0  0
    1.1042   -0.8500    0.0000 C   0  0  0  0  0  0           0  0  0
   -1.1333   -0.8583    0.0000 C   0  0  0  0  0  0           0  0  0
   -0.0167   -0.2083    0.0000 O   0  0  0  0  0  0           0  0  0
    4.4375   -1.5125    0.0000 O   0  0  0  0  0  0           0  0  0
   -4.4417   -1.6958    0.0000 O   0  0  0  0  0  0           0  0  0
   -4.4500    1.0833    0.0000 C   0  0  0  0  0  0           0  0  0
    4.4542    1.1250    0.0000 C   0  0  0  0  0  0           0  0  0
    2.7792    0.7833    0.0000 O   0  0  0  0  0  0           0  0  0
   -2.7833    0.7333    0.0000 O   0  0  0  0  0  0           0  0  0
    1.1000   -0.2000    0.0000 C   0  0  0  0  0  0           0  0  0
   -1.1333   -0.2167    0.0000 C   0  0  0  0  0  0           0  0  0
   -5.5708    1.7292    0.0000 C   0  0  0  0  0  0           0  0  0
    5.5750    1.7792    0.0000 C   0  0  0  0  0  0           0  0  0
   -6.1375    2.0542    0.0000 F   0  0  0  0  0  0           0  0  0
    6.1375    2.1042    0.0000 F   0  0  0  0  0  0           0  0  0
    5.0167    0.8000    0.0000 C   0  0  0  0  0  0           0  0  0
    4.4458    1.7708    0.0000 C   0  0  0  0  0  0           0  0  0
   -4.4500    1.7292    0.0000 C   0  0  0  0  0  0           0  0  0
   -5.0125    0.7542    0.0000 C   0  0  0  0  0  0           0  0  0
    5.5792    1.1250    0.0000 C   0  0  0  0  0  0           0  0  0
    5.0083    2.1000    0.0000 C   0  0  0  0  0  0           0  0  0
   -5.5708    1.0750    0.0000 C   0  0  0  0  0  0           0  0  0
   -5.0125    2.0542    0.0000 C   0  0  0  0  0  0           0  0  0
  2 11  1  0     0  0
  3  1  1  0     0  0
  4  2  1  0     0  0
  5 10  1  0     0  0
  6  1  2  0     0  0
  7  6  1  0     0  0
  8  5  1  0     0  0
  9  6  1  0     0  0
 10 17  2  0     0  0
 11 14  2  0     0  0
 12  1  1  0     0  0
 13 12  2  0     0  0
 14 29  1  0     0  0
 15 21  1  0     0  0
 16  9  2  0     0  0
 17 27  1  0     0  0
 18  7  2  0     0  0
 19  8  2  0     0  0
 20 15  1  0     0  0
 21 31  1  0     0  0
 22  3  2  0     0  0
 23  4  2  0     0  0
 24  4  2  0     0  0
 25  3  2  0     0  0
 26 16  1  0     0  0
 27 39  2  0     0  0
 28 13  1  0     0  0
 29 30  2  0     0  0
 30 20  1  0     0  0
 31 28  2  0     0  0
 32 15  2  0     0  0
 33  4  1  0     0  0
 34  3  1  0     0  0
 35 18  1  0     0  0
 36 19  1  0     0  0
 37 10  1  0     0  0
 38  9  1  0     0  0
 39 30  1  0     0  0
 40 26  2  0     0  0
 41 51  1  0     0  0
 42 50  1  0     0  0
 43 41  1  0     0  0
 44 42  1  0     0  0
 45 36  2  0     0  0
 46 36  1  0     0  0
 47 35  2  0     0  0
 48 35  1  0     0  0
 49 45  1  0     0  0
 50 46  2  0     0  0
 51 48  2  0     0  0
 52 47  1  0     0  0
 13 16  1  0     0  0
 31 40  1  0     0  0
 41 52  2  0     0  0
 17 14  1  0     0  0
  5  2  2  0     0  0
 42 49  2  0     0  0
M  END
>  <prID>
424

>  <IDDB>
104489

>  <pIC50_HIV_Integrase>
6.045757491

>  <Q>
-9.244843605

>  <Activity_Integrase>
Active_Integrase

NA
NA
NA
NA
$$$$

  Accelrys05311914302D 1   1.00000     0.00000     0

 52 57  0     0  0            999 V2000
   -3.3292   -0.8667    0.0000 C   0  0  0  0  0  0           0  0  0
    3.3375   -0.8417    0.0000 C   0  0  0  0  0  0           0  0  0
   -3.8750   -1.1792    0.0000 S   0  0  3  0  0  0           0  0  0
    3.9042   -1.1625    0.0000 S   0  0  3  0  0  0           0  0  0
    3.3375   -0.1875    0.0000 C   0  0  0  0  0  0           0  0  0
   -3.3292   -0.2250    0.0000 C   0  0  0  0  0  0           0  0  0
   -3.8875    0.1000    0.0000 N   0  0  0  0  0  0           0  0  0
    3.8917    0.1417    0.0000 N   0  0  0  0  0  0           0  0  0
   -2.7792    0.1000    0.0000 C   0  0  0  0  0  0           0  0  0
    2.7792    0.1333    0.0000 C   0  0  0  0  0  0           0  0  0
    2.7792   -1.1667    0.0000 C   0  0  0  0  0  0           0  0  0
   -2.7792   -1.1792    0.0000 C   0  0  0  0  0  0           0  0  0
   -2.2292   -0.8667    0.0000 C   0  0  0  0  0  0           0  0  0
    2.2208   -0.8500    0.0000 C   0  0  0  0  0  0           0  0  0
   -0.0083   -0.8583    0.0000 C   0  0  0  0  0  0           0  0  0
   -2.2292   -0.2208    0.0000 C   0  0  0  0  0  0           0  0  0
    2.2250   -0.2000    0.0000 C   0  0  0  0  0  0           0  0  0
   -3.8875    0.7583    0.0000 N   0  0  0  0  0  0           0  0  0
    3.8917    0.8000    0.0000 N   0  0  0  0  0  0           0  0  0
    0.5500   -1.1792    0.0000 N   0  0  0  0  0  0           0  0  0
   -0.5667   -1.1792    0.0000 N   0  0  0  0  0  0           0  0  0
   -4.4417   -0.6750    0.0000 O   0  0  0  0  0  0           0  0  0
    4.3583   -0.6917    0.0000 O   0  0  0  0  0  0           0  0  0
    3.4125   -1.7125    0.0000 O   0  0  0  0  0  0           0  0  0
   -3.3417   -1.7958    0.0000 O   0  0  0  0  0  0           0  0  0
   -1.6833    0.1000    0.0000 C   0  0  0  0  0  0           0  0  0
    1.6583    0.1250    0.0000 C   0  0  0  0  0  0           0  0  0
   -1.6750   -1.1792    0.0000 C   0  0  0  0  0  0           0  0  0
    1.6625   -1.1750    0.0000 C   0  0  0  0  0  0           0  0  0
    1.1042   -0.8500    0.0000 C   0  0  0  0  0  0           0  0  0
   -1.1333   -0.8583    0.0000 C   0  0  0  0  0  0           0  0  0
   -0.0167   -0.2083    0.0000 O   0  0  0  0  0  0           0  0  0
    4.4375   -1.5125    0.0000 O   0  0  0  0  0  0           0  0  0
   -4.4417   -1.6958    0.0000 O   0  0  0  0  0  0           0  0  0
   -4.4500    1.0833    0.0000 C   0  0  0  0  0  0           0  0  0
    4.4542    1.1250    0.0000 C   0  0  0  0  0  0           0  0  0
    2.7792    0.7833    0.0000 O   0  0  0  0  0  0           0  0  0
   -2.7833    0.7333    0.0000 O   0  0  0  0  0  0           0  0  0
    1.1000   -0.2000    0.0000 C   0  0  0  0  0  0           0  0  0
   -1.1333   -0.2167    0.0000 C   0  0  0  0  0  0           0  0  0
   -5.5708    1.7292    0.0000 C   0  0  0  0  0  0           0  0  0
    5.5750    1.7792    0.0000 C   0  0  0  0  0  0           0  0  0
   -6.1375    2.0542    0.0000 I   0  0  0  0  0  0           0  0  0
    6.1375    2.1042    0.0000 I   0  0  0  0  0  0           0  0  0
    5.0167    0.8000    0.0000 C   0  0  0  0  0  0           0  0  0
    4.4458    1.7708    0.0000 C   0  0  0  0  0  0           0  0  0
   -4.4500    1.7292    0.0000 C   0  0  0  0  0  0           0  0  0
   -5.0125    0.7542    0.0000 C   0  0  0  0  0  0           0  0  0
    5.5792    1.1250    0.0000 C   0  0  0  0  0  0           0  0  0
    5.0083    2.1000    0.0000 C   0  0  0  0  0  0           0  0  0
   -5.5708    1.0750    0.0000 C   0  0  0  0  0  0           0  0  0
   -5.0125    2.0542    0.0000 C   0  0  0  0  0  0           0  0  0
  2 11  1  0     0  0
  3  1  1  0     0  0
  4  2  1  0     0  0
  5 10  1  0     0  0
  6  1  2  0     0  0
  7  6  1  0     0  0
  8  5  1  0     0  0
  9  6  1  0     0  0
 10 17  2  0     0  0
 11 14  2  0     0  0
 12  1  1  0     0  0
 13 12  2  0     0  0
 14 29  1  0     0  0
 15 21  1  0     0  0
 16  9  2  0     0  0
 17 27  1  0     0  0
 18  7  2  0     0  0
 19  8  2  0     0  0
 20 15  1  0     0  0
 21 31  1  0     0  0
 22  3  2  0     0  0
 23  4  2  0     0  0
 24  4  2  0     0  0
 25  3  2  0     0  0
 26 16  1  0     0  0
 27 39  2  0     0  0
 28 13  1  0     0  0
 29 30  2  0     0  0
 30 20  1  0     0  0
 31 28  2  0     0  0
 32 15  2  0     0  0
 33  4  1  0     0  0
 34  3  1  0     0  0
 35 18  1  0     0  0
 36 19  1  0     0  0
 37 10  1  0     0  0
 38  9  1  0     0  0
 39 30  1  0     0  0
 40 26  2  0     0  0
 41 51  1  0     0  0
 42 50  1  0     0  0
 43 41  1  0     0  0
 44 42  1  0     0  0
 45 36  2  0     0  0
 46 36  1  0     0  0
 47 35  2  0     0  0
 48 35  1  0     0  0
 49 45  1  0     0  0
 50 46  2  0     0  0
 51 48  2  0     0  0
 52 47  1  0     0  0
 13 16  1  0     0  0
 31 40  1  0     0  0
 41 52  2  0     0  0
 17 14  1  0     0  0
  5  2  2  0     0  0
 42 49  2  0     0  0
M  END
>  <prID>
425

>  <IDDB>
104491

>  <pIC50_HIV_Integrase>
6

>  <Q>
-1.355279899

>  <Activity_Integrase>
Inactive_Integrase

NA
NA
NA
NA
$$$$

  Accelrys05311914302D 1   1.00000     0.00000     0

 58 63  0     0  0            999 V2000
   -2.8167   -0.8750    0.0000 C   0  0  0  0  0  0           0  0  0
    2.8208   -0.8583    0.0000 C   0  0  0  0  0  0           0  0  0
   -3.2750   -1.1417    0.0000 S   0  0  3  0  0  0           0  0  0
    3.3000   -1.1250    0.0000 S   0  0  3  0  0  0           0  0  0
    2.8167   -0.3000    0.0000 C   0  0  0  0  0  0           0  0  0
   -2.8125   -0.3375    0.0000 C   0  0  0  0  0  0           0  0  0
   -3.2833   -0.0583    0.0000 N   0  0  0  0  0  0           0  0  0
    3.2875   -0.0250    0.0000 N   0  0  0  0  0  0           0  0  0
   -2.3458   -0.0583    0.0000 C   0  0  0  0  0  0           0  0  0
    2.3458   -0.0292    0.0000 C   0  0  0  0  0  0           0  0  0
    2.3500   -1.1292    0.0000 C   0  0  0  0  0  0           0  0  0
   -2.3458   -1.1417    0.0000 C   0  0  0  0  0  0           0  0  0
   -1.8833   -0.8750    0.0000 C   0  0  0  0  0  0           0  0  0
    1.8792   -0.8583    0.0000 C   0  0  0  0  0  0           0  0  0
   -0.0083   -0.8667    0.0000 C   0  0  0  0  0  0           0  0  0
   -1.8833   -0.3333    0.0000 C   0  0  0  0  0  0           0  0  0
    1.8792   -0.3083    0.0000 C   0  0  0  0  0  0           0  0  0
   -3.2833    0.4958    0.0000 N   0  0  0  0  0  0           0  0  0
    3.2875    0.5292    0.0000 N   0  0  0  0  0  0           0  0  0
    0.4625   -1.1375    0.0000 N   0  0  0  0  0  0           0  0  0
   -0.4833   -1.1458    0.0000 N   0  0  0  0  0  0           0  0  0
   -2.8208   -1.6583    0.0000 O   0  0  0  0  0  0           0  0  0
    3.6833   -0.7292    0.0000 O   0  0  0  0  0  0           0  0  0
    2.8833   -1.5917    0.0000 O   0  0  0  0  0  0           0  0  0
   -3.7500   -0.7125    0.0000 O   0  0  0  0  0  0           0  0  0
   -1.4208   -0.0583    0.0000 C   0  0  0  0  0  0           0  0  0
    1.4000   -0.0375    0.0000 C   0  0  0  0  0  0           0  0  0
   -5.6625    1.3167    0.0000 C   0  0  0  0  0  0           0  0  0
    5.6583    1.3625    0.0000 C   0  0  0  0  0  0           0  0  0
    1.4042   -1.1375    0.0000 C   0  0  0  0  0  0           0  0  0
   -1.4167   -1.1417    0.0000 C   0  0  0  0  0  0           0  0  0
    5.1833    1.6333    0.0000 N   0  0  0  0  0  0           0  0  0
   -5.1875    1.5917    0.0000 N   0  0  0  0  0  0           0  0  0
    0.9333   -0.8583    0.0000 C   0  0  0  0  0  0           0  0  0
   -0.9583   -0.8708    0.0000 C   0  0  0  0  0  0           0  0  0
   -0.0125   -0.3167    0.0000 O   0  0  0  0  0  0           0  0  0
    3.7542   -1.4208    0.0000 O   0  0  0  0  0  0           0  0  0
   -3.7500   -1.5792    0.0000 O   0  0  0  0  0  0           0  0  0
   -5.6625    0.7667    0.0000 O   0  0  0  0  0  0           0  0  0
    5.6625    0.8125    0.0000 O   0  0  0  0  0  0           0  0  0
    3.7583    0.8042    0.0000 C   0  0  0  0  0  0           0  0  0
   -3.7625    0.7708    0.0000 C   0  0  0  0  0  0           0  0  0
   -2.3500    0.4750    0.0000 O   0  0  0  0  0  0           0  0  0
    2.3458    0.5208    0.0000 O   0  0  0  0  0  0           0  0  0
    4.7083    1.3583    0.0000 C   0  0  0  0  0  0           0  0  0
   -4.7125    1.3208    0.0000 C   0  0  0  0  0  0           0  0  0
    0.9292   -0.3167    0.0000 C   0  0  0  0  0  0           0  0  0
   -0.9583   -0.3292    0.0000 C   0  0  0  0  0  0           0  0  0
   -4.2375    0.4917    0.0000 C   0  0  0  0  0  0           0  0  0
   -3.7625    1.3208    0.0000 C   0  0  0  0  0  0           0  0  0
    4.2375    0.5333    0.0000 C   0  0  0  0  0  0           0  0  0
    3.7583    1.3542    0.0000 C   0  0  0  0  0  0           0  0  0
   -4.2375    1.5917    0.0000 C   0  0  0  0  0  0           0  0  0
   -4.7083    0.7625    0.0000 C   0  0  0  0  0  0           0  0  0
    4.7125    0.8083    0.0000 C   0  0  0  0  0  0           0  0  0
    4.2292    1.6292    0.0000 C   0  0  0  0  0  0           0  0  0
    6.1375    1.6417    0.0000 C   0  0  0  0  0  0           0  0  0
   -6.1375    1.5917    0.0000 C   0  0  0  0  0  0           0  0  0
  2 11  1  0     0  0
  3  1  1  0     0  0
  4  2  1  0     0  0
  5 10  1  0     0  0
  6  1  2  0     0  0
  7  6  1  0     0  0
  8  5  1  0     0  0
  9  6  1  0     0  0
 10 17  2  0     0  0
 11 14  2  0     0  0
 12  1  1  0     0  0
 13 12  2  0     0  0
 14 30  1  0     0  0
 15 21  1  0     0  0
 16 13  1  0     0  0
 17 27  1  0     0  0
 18  7  2  0     0  0
 19  8  2  0     0  0
 20 15  1  0     0  0
 21 35  1  0     0  0
 22  3  2  0     0  0
 23  4  2  0     0  0
 24  4  2  0     0  0
 25  3  2  0     0  0
 26 16  1  0     0  0
 27 47  2  0     0  0
 28 33  1  0     0  0
 29 32  1  0     0  0
 30 34  2  0     0  0
 31 13  1  0     0  0
 32 45  1  0     0  0
 33 46  1  0     0  0
 34 20  1  0     0  0
 35 31  2  0     0  0
 36 15  2  0     0  0
 37  4  1  0     0  0
 38  3  1  0     0  0
 39 28  2  0     0  0
 40 29  2  0     0  0
 41 19  1  0     0  0
 42 18  1  0     0  0
 43  9  1  0     0  0
 44 10  1  0     0  0
 45 56  1  0     0  0
 46 54  1  0     0  0
 47 34  1  0     0  0
 48 26  2  0     0  0
 49 42  1  0     0  0
 50 42  2  0     0  0
 51 41  2  0     0  0
 52 41  1  0     0  0
 53 50  1  0     0  0
 54 49  2  0     0  0
 55 51  1  0     0  0
 56 52  2  0     0  0
 57 29  1  0     0  0
 58 28  1  0     0  0
 16  9  2  0     0  0
 35 48  1  0     0  0
 46 53  2  0     0  0
 17 14  1  0     0  0
  5  2  2  0     0  0
 45 55  2  0     0  0
M  END
>  <prID>
426

>  <IDDB>
104492

>  <pIC50_HIV_Integrase>
6.301029996

>  <Q>
-6.79880548

>  <Activity_Integrase>
Active_Integrase

NA
NA
NA
NA
$$$$

  Accelrys05311914302D 1   1.00000     0.00000     0

 54 59  0     0  0            999 V2000
   -3.0500   -0.8542    0.0000 C   0  0  0  0  0  0           0  0  0
    3.0583   -0.8333    0.0000 C   0  0  0  0  0  0           0  0  0
   -3.5417   -1.1417    0.0000 S   0  0  3  0  0  0           0  0  0
    3.5792   -1.1208    0.0000 S   0  0  3  0  0  0           0  0  0
    3.0542   -0.2333    0.0000 C   0  0  0  0  0  0           0  0  0
   -3.0500   -0.2667    0.0000 C   0  0  0  0  0  0           0  0  0
   -3.5625    0.0333    0.0000 N   0  0  0  0  0  0           0  0  0
    3.5625    0.0708    0.0000 N   0  0  0  0  0  0           0  0  0
   -2.5417    0.0292    0.0000 C   0  0  0  0  0  0           0  0  0
    2.5458    0.0625    0.0000 C   0  0  0  0  0  0           0  0  0
    2.5500   -1.1292    0.0000 C   0  0  0  0  0  0           0  0  0
   -2.5417   -1.1417    0.0000 C   0  0  0  0  0  0           0  0  0
   -2.0417   -0.8542    0.0000 C   0  0  0  0  0  0           0  0  0
    2.0375   -0.8375    0.0000 C   0  0  0  0  0  0           0  0  0
   -0.0083   -0.8375    0.0000 C   0  0  0  0  0  0           0  0  0
   -2.0417   -0.2625    0.0000 C   0  0  0  0  0  0           0  0  0
    2.0375   -0.2375    0.0000 C   0  0  0  0  0  0           0  0  0
   -3.5625    0.6333    0.0000 N   0  0  0  0  0  0           0  0  0
    3.5625    0.6708    0.0000 N   0  0  0  0  0  0           0  0  0
    0.5000   -1.1375    0.0000 N   0  0  0  0  0  0           0  0  0
   -0.5208   -1.1417    0.0000 N   0  0  0  0  0  0           0  0  0
   -3.0583   -1.7000    0.0000 O   0  0  0  0  0  0           0  0  0
    3.9958   -0.6958    0.0000 O   0  0  0  0  0  0           0  0  0
    3.1208   -1.6292    0.0000 O   0  0  0  0  0  0           0  0  0
   -4.0625   -0.6792    0.0000 O   0  0  0  0  0  0           0  0  0
   -1.5417    0.0375    0.0000 C   0  0  0  0  0  0           0  0  0
    1.5167    0.0583    0.0000 C   0  0  0  0  0  0           0  0  0
   -1.5375   -1.1417    0.0000 C   0  0  0  0  0  0           0  0  0
    1.5208   -1.1375    0.0000 C   0  0  0  0  0  0           0  0  0
    1.0125   -0.8375    0.0000 C   0  0  0  0  0  0           0  0  0
   -1.0375   -0.8458    0.0000 C   0  0  0  0  0  0           0  0  0
   -0.0167   -0.2500    0.0000 O   0  0  0  0  0  0           0  0  0
    4.0667   -1.4458    0.0000 O   0  0  0  0  0  0           0  0  0
   -4.0625   -1.6125    0.0000 O   0  0  0  0  0  0           0  0  0
   -4.0792    0.9292    0.0000 C   0  0  0  0  0  0           0  0  0
    4.0792    0.9708    0.0000 C   0  0  0  0  0  0           0  0  0
    2.5417    0.6583    0.0000 O   0  0  0  0  0  0           0  0  0
   -2.5458    0.6125    0.0000 O   0  0  0  0  0  0           0  0  0
    1.0083   -0.2458    0.0000 C   0  0  0  0  0  0           0  0  0
   -1.0375   -0.2583    0.0000 C   0  0  0  0  0  0           0  0  0
   -5.1083    1.5250    0.0000 C   0  0  0  0  0  0           0  0  0
    5.1042    1.5667    0.0000 C   0  0  0  0  0  0           0  0  0
   -4.5917    0.6292    0.0000 C   0  0  0  0  0  0           0  0  0
    4.5917    0.6750    0.0000 C   0  0  0  0  0  0           0  0  0
    4.0750    1.5625    0.0000 C   0  0  0  0  0  0           0  0  0
   -4.0750    1.5250    0.0000 C   0  0  0  0  0  0           0  0  0
   -4.5917    1.8208    0.0000 C   0  0  0  0  0  0           0  0  0
    5.1083    0.9708    0.0000 C   0  0  0  0  0  0           0  0  0
    4.5833    1.8625    0.0000 C   0  0  0  0  0  0           0  0  0
   -5.1000    0.9250    0.0000 C   0  0  0  0  0  0           0  0  0
   -5.6208    1.8208    0.0000 O   0  0  0  0  0  0           0  0  0
    5.6167    1.8667    0.0000 O   0  0  0  0  0  0           0  0  0
   -6.1375    1.5208    0.0000 C   0  0  0  0  0  0           0  0  0
    6.1375    1.5708    0.0000 C   0  0  0  0  0  0           0  0  0
  2 11  1  0     0  0
  3  1  1  0     0  0
  4  2  1  0     0  0
  5 10  1  0     0  0
  6  1  2  0     0  0
  7  6  1  0     0  0
  8  5  1  0     0  0
  9  6  1  0     0  0
 10 17  2  0     0  0
 11 14  2  0     0  0
 12  1  1  0     0  0
 13 12  2  0     0  0
 14 29  1  0     0  0
 15 21  1  0     0  0
 16 13  1  0     0  0
 17 27  1  0     0  0
 18  7  2  0     0  0
 19  8  2  0     0  0
 20 15  1  0     0  0
 21 31  1  0     0  0
 22  3  2  0     0  0
 23  4  2  0     0  0
 24  4  2  0     0  0
 25  3  2  0     0  0
 26 16  1  0     0  0
 27 39  2  0     0  0
 28 13  1  0     0  0
 29 30  2  0     0  0
 30 20  1  0     0  0
 31 28  2  0     0  0
 32 15  2  0     0  0
 33  4  1  0     0  0
 34  3  1  0     0  0
 35 18  1  0     0  0
 36 19  1  0     0  0
 37 10  1  0     0  0
 38  9  1  0     0  0
 39 30  1  0     0  0
 40 26  2  0     0  0
 41 50  1  0     0  0
 42 49  1  0     0  0
 43 35  1  0     0  0
 44 36  2  0     0  0
 45 36  1  0     0  0
 46 35  2  0     0  0
 47 46  1  0     0  0
 48 44  1  0     0  0
 49 45  2  0     0  0
 50 43  2  0     0  0
 51 41  1  0     0  0
 52 42  1  0     0  0
 53 51  1  0     0  0
 54 52  1  0     0  0
 16  9  2  0     0  0
 31 40  1  0     0  0
 41 47  2  0     0  0
 17 14  1  0     0  0
  5  2  2  0     0  0
 42 48  2  0     0  0
M  END
>  <prID>
427

>  <IDDB>
104493

>  <pIC50_HIV_Integrase>
6.22184875

>  <Q>
-4.778057241

>  <Activity_Integrase>
Active_Integrase

NA
NA
NA
NA
$$$$

  Accelrys05311914302D 1   1.00000     0.00000     0

 54 59  0     0  0            999 V2000
   -3.0500   -0.8542    0.0000 C   0  0  0  0  0  0           0  0  0
    3.0583   -0.8333    0.0000 C   0  0  0  0  0  0           0  0  0
   -3.5417   -1.1417    0.0000 S   0  0  3  0  0  0           0  0  0
    3.5792   -1.1208    0.0000 S   0  0  3  0  0  0           0  0  0
    3.0542   -0.2333    0.0000 C   0  0  0  0  0  0           0  0  0
   -3.0500   -0.2667    0.0000 C   0  0  0  0  0  0           0  0  0
   -3.5625    0.0333    0.0000 N   0  0  0  0  0  0           0  0  0
    3.5625    0.0708    0.0000 N   0  0  0  0  0  0           0  0  0
   -2.5417    0.0292    0.0000 C   0  0  0  0  0  0           0  0  0
    2.5458    0.0625    0.0000 C   0  0  0  0  0  0           0  0  0
    2.5500   -1.1292    0.0000 C   0  0  0  0  0  0           0  0  0
   -2.5417   -1.1417    0.0000 C   0  0  0  0  0  0           0  0  0
   -2.0417   -0.8542    0.0000 C   0  0  0  0  0  0           0  0  0
    2.0375   -0.8375    0.0000 C   0  0  0  0  0  0           0  0  0
   -0.0083   -0.8417    0.0000 C   0  0  0  0  0  0           0  0  0
   -2.0417   -0.2625    0.0000 C   0  0  0  0  0  0           0  0  0
    2.0375   -0.2375    0.0000 C   0  0  0  0  0  0           0  0  0
   -3.5625    0.6333    0.0000 N   0  0  0  0  0  0           0  0  0
    3.5625    0.6708    0.0000 N   0  0  0  0  0  0           0  0  0
    0.5000   -1.1375    0.0000 N   0  0  0  0  0  0           0  0  0
   -0.5208   -1.1458    0.0000 N   0  0  0  0  0  0           0  0  0
   -3.0583   -1.7000    0.0000 O   0  0  0  0  0  0           0  0  0
    3.9958   -0.6958    0.0000 O   0  0  0  0  0  0           0  0  0
    3.1208   -1.6292    0.0000 O   0  0  0  0  0  0           0  0  0
   -4.0625   -0.6792    0.0000 O   0  0  0  0  0  0           0  0  0
   -1.5417    0.0375    0.0000 C   0  0  0  0  0  0           0  0  0
    1.5167    0.0583    0.0000 C   0  0  0  0  0  0           0  0  0
   -1.5375   -1.1417    0.0000 C   0  0  0  0  0  0           0  0  0
    1.5208   -1.1375    0.0000 C   0  0  0  0  0  0           0  0  0
    1.0125   -0.8375    0.0000 C   0  0  0  0  0  0           0  0  0
   -1.0375   -0.8458    0.0000 C   0  0  0  0  0  0           0  0  0
   -0.0167   -0.2500    0.0000 O   0  0  0  0  0  0           0  0  0
    4.0667   -1.4458    0.0000 O   0  0  0  0  0  0           0  0  0
   -4.0625   -1.6125    0.0000 O   0  0  0  0  0  0           0  0  0
   -5.6208    1.8208    0.0000 C   0  0  0  0  0  0           0  0  0
    5.6167    1.8667    0.0000 C   0  0  0  0  0  0           0  0  0
    4.0792    0.9708    0.0000 C   0  0  0  0  0  0           0  0  0
   -4.0792    0.9292    0.0000 C   0  0  0  0  0  0           0  0  0
   -2.5458    0.6125    0.0000 O   0  0  0  0  0  0           0  0  0
    2.5417    0.6583    0.0000 O   0  0  0  0  0  0           0  0  0
   -6.1375    1.5208    0.0000 C   0  0  0  0  0  0           0  0  0
    6.1375    1.5708    0.0000 C   0  0  0  0  0  0           0  0  0
    1.0083   -0.2458    0.0000 C   0  0  0  0  0  0           0  0  0
   -1.0375   -0.2583    0.0000 C   0  0  0  0  0  0           0  0  0
   -5.1083    1.5250    0.0000 C   0  0  0  0  0  0           0  0  0
    5.1042    1.5667    0.0000 C   0  0  0  0  0  0           0  0  0
    4.0750    1.5625    0.0000 C   0  0  0  0  0  0           0  0  0
   -4.0750    1.5250    0.0000 C   0  0  0  0  0  0           0  0  0
   -4.5917    0.6292    0.0000 C   0  0  0  0  0  0           0  0  0
    4.5917    0.6750    0.0000 C   0  0  0  0  0  0           0  0  0
    4.5833    1.8625    0.0000 C   0  0  0  0  0  0           0  0  0
   -5.1000    0.9250    0.0000 C   0  0  0  0  0  0           0  0  0
   -4.5917    1.8208    0.0000 C   0  0  0  0  0  0           0  0  0
    5.1083    0.9708    0.0000 C   0  0  0  0  0  0           0  0  0
  2 11  1  0     0  0
  3  1  1  0     0  0
  4  2  1  0     0  0
  5 10  1  0     0  0
  6  1  2  0     0  0
  7  6  1  0     0  0
  8  5  1  0     0  0
  9  6  1  0     0  0
 10 17  2  0     0  0
 11 14  2  0     0  0
 12  1  1  0     0  0
 13 12  2  0     0  0
 14 29  1  0     0  0
 15 21  1  0     0  0
 16 13  1  0     0  0
 17 27  1  0     0  0
 18  7  2  0     0  0
 19  8  2  0     0  0
 20 15  1  0     0  0
 21 31  1  0     0  0
 22  3  2  0     0  0
 23  4  2  0     0  0
 24  4  2  0     0  0
 25  3  2  0     0  0
 26 16  1  0     0  0
 27 43  2  0     0  0
 28 13  1  0     0  0
 29 30  2  0     0  0
 30 20  1  0     0  0
 31 28  2  0     0  0
 32 15  2  0     0  0
 33  4  1  0     0  0
 34  3  1  0     0  0
 35 45  1  0     0  0
 36 46  1  0     0  0
 37 19  1  0     0  0
 38 18  1  0     0  0
 39  9  1  0     0  0
 40 10  1  0     0  0
 41 35  2  0     0  0
 42 36  2  0     0  0
 43 30  1  0     0  0
 44 26  2  0     0  0
 45 52  1  0     0  0
 46 51  1  0     0  0
 47 37  1  0     0  0
 48 38  2  0     0  0
 49 38  1  0     0  0
 50 37  2  0     0  0
 51 47  2  0     0  0
 52 49  2  0     0  0
 53 48  1  0     0  0
 54 50  1  0     0  0
 16  9  2  0     0  0
 31 44  1  0     0  0
 45 53  2  0     0  0
 17 14  1  0     0  0
  5  2  2  0     0  0
 46 54  2  0     0  0
M  END
>  <prID>
428

>  <IDDB>
104494

>  <pIC50_HIV_Integrase>
5.823908741

>  <Q>
-3.289092646

>  <Activity_Integrase>
Inactive_Integrase

NA
NA
NA
NA
$$$$

  Accelrys05311914302D 1   1.00000     0.00000     0

 60 65  0     0  0            999 V2000
    3.0167   -0.1708    0.0000 C   0  0  0  0  0  0           0  0  0
   -3.0833    0.0750    0.0000 C   0  0  0  0  0  0           0  0  0
    3.4917    0.1042    0.0000 S   0  0  3  0  0  0           0  0  0
   -3.5417   -0.1958    0.0000 S   0  0  3  0  0  0           0  0  0
   -3.0833    0.6125    0.0000 C   0  0  0  0  0  0           0  0  0
    3.0208   -0.7208    0.0000 C   0  0  0  0  0  0           0  0  0
    3.5000   -0.9917    0.0000 N   0  0  0  0  0  0           0  0  0
   -3.5542    0.8875    0.0000 N   0  0  0  0  0  0           0  0  0
    2.5542   -0.9958    0.0000 C   0  0  0  0  0  0           0  0  0
   -2.6208    0.8833    0.0000 C   0  0  0  0  0  0           0  0  0
   -2.6208   -0.1958    0.0000 C   0  0  0  0  0  0           0  0  0
    2.5500    0.1000    0.0000 C   0  0  0  0  0  0           0  0  0
    0.1875   -0.1917    0.0000 C   0  0  0  0  0  0           0  0  0
   -0.2875    0.0833    0.0000 C   0  0  0  0  0  0           0  0  0
    2.0833   -0.1792    0.0000 C   0  0  0  0  0  0           0  0  0
   -2.1583    0.0750    0.0000 C   0  0  0  0  0  0           0  0  0
    2.0792   -0.7250    0.0000 C   0  0  0  0  0  0           0  0  0
   -2.1625    0.6125    0.0000 C   0  0  0  0  0  0           0  0  0
    0.6583    0.0875    0.0000 N   0  0  0  0  0  0           0  0  0
   -0.7583   -0.1958    0.0000 N   0  0  0  0  0  0           0  0  0
    3.5000   -1.5375    0.0000 N   0  0  0  0  0  0           0  0  0
   -3.5542    1.4417    0.0000 N   0  0  0  0  0  0           0  0  0
    2.9750    0.5208    0.0000 O   0  0  0  0  0  0           0  0  0
   -3.0917   -0.7083    0.0000 O   0  0  0  0  0  0           0  0  0
   -4.0208    0.2375    0.0000 O   0  0  0  0  0  0           0  0  0
    4.0125   -0.3000    0.0000 O   0  0  0  0  0  0           0  0  0
    1.6083   -1.0000    0.0000 C   0  0  0  0  0  0           0  0  0
   -1.7000    0.8875    0.0000 C   0  0  0  0  0  0           0  0  0
    5.8750   -2.3500    0.0000 C   0  0  0  0  0  0           0  0  0
   -5.4500    3.0792    0.0000 C   0  0  0  0  0  0           0  0  0
    1.6083    0.0958    0.0000 C   0  0  0  0  0  0           0  0  0
   -1.6917   -0.1958    0.0000 C   0  0  0  0  0  0           0  0  0
   -1.2333    0.0792    0.0000 C   0  0  0  0  0  0           0  0  0
    1.1375   -0.1792    0.0000 C   0  0  0  0  0  0           0  0  0
    0.1917   -0.7375    0.0000 O   0  0  0  0  0  0           0  0  0
   -0.2958    0.6250    0.0000 O   0  0  0  0  0  0           0  0  0
    3.9500    0.4417    0.0000 O   0  0  0  0  0  0           0  0  0
   -4.0208   -0.6250    0.0000 O   0  0  0  0  0  0           0  0  0
    5.8708   -1.8000    0.0000 O   0  0  0  0  0  0           0  0  0
   -4.9792    3.3542    0.0000 O   0  0  0  0  0  0           0  0  0
    3.9792   -1.8125    0.0000 C   0  0  0  0  0  0           0  0  0
   -4.0292    1.7125    0.0000 C   0  0  0  0  0  0           0  0  0
   -2.6208    1.4208    0.0000 O   0  0  0  0  0  0           0  0  0
    2.5583   -1.5417    0.0000 O   0  0  0  0  0  0           0  0  0
    5.4000   -2.6250    0.0000 C   0  0  0  0  0  0           0  0  0
   -5.4500    2.5333    0.0000 C   0  0  0  0  0  0           0  0  0
   -1.2333    0.6208    0.0000 C   0  0  0  0  0  0           0  0  0
    1.1375   -0.7250    0.0000 C   0  0  0  0  0  0           0  0  0
   -4.9750    2.2625    0.0000 C   0  0  0  0  0  0           0  0  0
    4.9250   -2.3542    0.0000 C   0  0  0  0  0  0           0  0  0
   -5.9250    3.3542    0.0000 O   0  0  0  0  0  0           0  0  0
    6.3500   -2.6167    0.0000 O   0  0  0  0  0  0           0  0  0
    3.9792   -2.3583    0.0000 C   0  0  0  0  0  0           0  0  0
   -4.0250    2.2625    0.0000 C   0  0  0  0  0  0           0  0  0
   -4.5000    1.4375    0.0000 C   0  0  0  0  0  0           0  0  0
    4.4458   -1.5375    0.0000 C   0  0  0  0  0  0           0  0  0
    4.9208   -1.8042    0.0000 C   0  0  0  0  0  0           0  0  0
   -4.5000    2.5333    0.0000 C   0  0  0  0  0  0           0  0  0
   -4.9750    1.7083    0.0000 C   0  0  0  0  0  0           0  0  0
    4.4542   -2.6292    0.0000 C   0  0  0  0  0  0           0  0  0
  2 11  1  0     0  0
  3  1  1  0     0  0
  4  2  1  0     0  0
  5 10  1  0     0  0
  6  1  2  0     0  0
  7  6  1  0     0  0
  8  5  1  0     0  0
  9  6  1  0     0  0
 10 18  2  0     0  0
 11 16  2  0     0  0
 12  1  1  0     0  0
 13 19  1  0     0  0
 14 13  1  0     0  0
 15 12  2  0     0  0
 16 32  1  0     0  0
 17  9  2  0     0  0
 18 28  1  0     0  0
 19 34  1  0     0  0
 20 14  1  0     0  0
 21  7  2  0     0  0
 22  8  2  0     0  0
 23  3  2  0     0  0
 24  4  2  0     0  0
 25  4  2  0     0  0
 26  3  2  0     0  0
 27 17  1  0     0  0
 28 47  2  0     0  0
 29 45  1  0     0  0
 30 46  1  0     0  0
 31 15  1  0     0  0
 32 33  2  0     0  0
 33 20  1  0     0  0
 34 31  2  0     0  0
 35 13  2  0     0  0
 36 14  2  0     0  0
 37  3  1  0     0  0
 38  4  1  0     0  0
 39 29  2  0     0  0
 40 30  2  0     0  0
 41 21  1  0     0  0
 42 22  1  0     0  0
 43 10  1  0     0  0
 44  9  1  0     0  0
 45 50  1  0     0  0
 46 49  1  0     0  0
 47 33  1  0     0  0
 48 27  2  0     0  0
 49 59  1  0     0  0
 50 57  1  0     0  0
 51 30  1  0     0  0
 52 29  1  0     0  0
 53 41  2  0     0  0
 54 42  2  0     0  0
 55 42  1  0     0  0
 56 41  1  0     0  0
 57 56  2  0     0  0
 58 54  1  0     0  0
 59 55  2  0     0  0
 60 53  1  0     0  0
 17 15  1  0     0  0
 48 34  1  0     0  0
 50 60  2  0     0  0
 18 16  1  0     0  0
  5  2  2  0     0  0
 49 58  2  0     0  0
M  END
>  <prID>
429

>  <IDDB>
104495

>  <pIC50_HIV_Integrase>
6.301029996

>  <Q>
-6.888794697

>  <Activity_Integrase>
Active_Integrase

NA
NA
NA
NA
$$$$

  Accelrys05311914332D 1   1.00000     0.00000     0

 62 67  0     0  0            999 V2000
    3.1125   -0.2292    0.0000 C   0  0  0  0  0  0           0  0  0
   -3.2417    0.0208    0.0000 C   0  0  0  0  0  0           0  0  0
    3.6042    0.0583    0.0000 S   0  0  3  0  0  0           0  0  0
   -3.7208   -0.2583    0.0000 S   0  0  3  0  0  0           0  0  0
   -3.2417    0.5833    0.0000 C   0  0  0  0  0  0           0  0  0
    3.1167   -0.8042    0.0000 C   0  0  0  0  0  0           0  0  0
    3.6125   -1.0875    0.0000 N   0  0  0  0  0  0           0  0  0
   -3.7292    0.8708    0.0000 N   0  0  0  0  0  0           0  0  0
    2.6250   -1.0875    0.0000 C   0  0  0  0  0  0           0  0  0
   -2.7583    0.8667    0.0000 C   0  0  0  0  0  0           0  0  0
   -2.7583   -0.2583    0.0000 C   0  0  0  0  0  0           0  0  0
    2.6208    0.0542    0.0000 C   0  0  0  0  0  0           0  0  0
    0.1625   -0.2500    0.0000 C   0  0  0  0  0  0           0  0  0
   -0.3292    0.0292    0.0000 C   0  0  0  0  0  0           0  0  0
    2.1375   -0.2375    0.0000 C   0  0  0  0  0  0           0  0  0
   -2.2792    0.0208    0.0000 C   0  0  0  0  0  0           0  0  0
    2.1375   -0.8083    0.0000 C   0  0  0  0  0  0           0  0  0
   -2.2792    0.5833    0.0000 C   0  0  0  0  0  0           0  0  0
    0.6583    0.0417    0.0000 N   0  0  0  0  0  0           0  0  0
   -0.8208   -0.2583    0.0000 N   0  0  0  0  0  0           0  0  0
    3.6125   -1.6583    0.0000 N   0  0  0  0  0  0           0  0  0
   -3.7292    1.4417    0.0000 N   0  0  0  0  0  0           0  0  0
    4.1417   -0.3667    0.0000 O   0  0  0  0  0  0           0  0  0
   -3.2500   -0.7917    0.0000 O   0  0  0  0  0  0           0  0  0
   -4.2125    0.1917    0.0000 O   0  0  0  0  0  0           0  0  0
    3.0667    0.4917    0.0000 O   0  0  0  0  0  0           0  0  0
    1.6458   -1.0958    0.0000 C   0  0  0  0  0  0           0  0  0
   -1.8000    0.8708    0.0000 C   0  0  0  0  0  0           0  0  0
    1.6417    0.0458    0.0000 C   0  0  0  0  0  0           0  0  0
   -1.7917   -0.2583    0.0000 C   0  0  0  0  0  0           0  0  0
    6.0792   -1.9292    0.0000 C   0  0  0  0  0  0           0  0  0
   -5.2125    3.4375    0.0000 C   0  0  0  0  0  0           0  0  0
   -1.3167    0.0292    0.0000 C   0  0  0  0  0  0           0  0  0
    1.1542   -0.2417    0.0000 C   0  0  0  0  0  0           0  0  0
    0.1708   -0.8208    0.0000 O   0  0  0  0  0  0           0  0  0
   -0.3375    0.6000    0.0000 O   0  0  0  0  0  0           0  0  0
    4.0792    0.4042    0.0000 O   0  0  0  0  0  0           0  0  0
   -4.2167   -0.7042    0.0000 O   0  0  0  0  0  0           0  0  0
    5.5833   -1.6458    0.0000 O   0  0  0  0  0  0           0  0  0
   -5.2125    4.0000    0.0000 O   0  0  0  0  0  0           0  0  0
    4.1083   -1.9375    0.0000 C   0  0  0  0  0  0           0  0  0
   -4.2250    1.7292    0.0000 C   0  0  0  0  0  0           0  0  0
   -2.7625    1.4208    0.0000 O   0  0  0  0  0  0           0  0  0
    2.6292   -1.6583    0.0000 O   0  0  0  0  0  0           0  0  0
   -1.3167    0.5917    0.0000 C   0  0  0  0  0  0           0  0  0
    1.1583   -0.8083    0.0000 C   0  0  0  0  0  0           0  0  0
    6.0833   -2.5000    0.0000 C   0  0  0  0  0  0           0  0  0
   -5.7042    3.1500    0.0000 C   0  0  0  0  0  0           0  0  0
   -5.2083    2.3000    0.0000 C   0  0  0  0  0  0           0  0  0
    5.1000   -2.5042    0.0000 C   0  0  0  0  0  0           0  0  0
   -4.7167    3.1542    0.0000 O   0  0  0  0  0  0           0  0  0
    6.5708   -1.6375    0.0000 O   0  0  0  0  0  0           0  0  0
    5.5917   -2.7833    0.0000 C   0  0  0  0  0  0           0  0  0
   -5.7042    2.5833    0.0000 C   0  0  0  0  0  0           0  0  0
   -4.2208    2.2958    0.0000 C   0  0  0  0  0  0           0  0  0
   -4.7167    1.4417    0.0000 C   0  0  0  0  0  0           0  0  0
    4.1083   -2.5083    0.0000 C   0  0  0  0  0  0           0  0  0
    4.6000   -1.6542    0.0000 C   0  0  0  0  0  0           0  0  0
   -4.7167    2.5833    0.0000 C   0  0  0  0  0  0           0  0  0
   -5.2083    1.7208    0.0000 C   0  0  0  0  0  0           0  0  0
    4.6000   -2.7917    0.0000 C   0  0  0  0  0  0           0  0  0
    5.0917   -1.9333    0.0000 C   0  0  0  0  0  0           0  0  0
  2 11  1  0     0  0
  3  1  1  0     0  0
  4  2  1  0     0  0
  5 10  1  0     0  0
  6  1  2  0     0  0
  7  6  1  0     0  0
  8  5  1  0     0  0
  9  6  1  0     0  0
 10 18  2  0     0  0
 11 16  2  0     0  0
 12  1  1  0     0  0
 13 19  1  0     0  0
 14 13  1  0     0  0
 15 12  2  0     0  0
 16 30  1  0     0  0
 17  9  2  0     0  0
 18 28  1  0     0  0
 19 34  1  0     0  0
 20 14  1  0     0  0
 21  7  2  0     0  0
 22  8  2  0     0  0
 23  3  2  0     0  0
 24  4  2  0     0  0
 25  4  2  0     0  0
 26  3  2  0     0  0
 27 17  1  0     0  0
 28 45  2  0     0  0
 29 15  1  0     0  0
 30 33  2  0     0  0
 31 47  1  0     0  0
 32 48  1  0     0  0
 33 20  1  0     0  0
 34 29  2  0     0  0
 35 13  2  0     0  0
 36 14  2  0     0  0
 37  3  1  0     0  0
 38  4  1  0     0  0
 39 31  2  0     0  0
 40 32  2  0     0  0
 41 21  1  0     0  0
 42 22  1  0     0  0
 43 10  1  0     0  0
 44  9  1  0     0  0
 45 33  1  0     0  0
 46 27  2  0     0  0
 47 53  1  0     0  0
 48 54  1  0     0  0
 49 60  1  0     0  0
 50 62  1  0     0  0
 51 32  1  0     0  0
 52 31  1  0     0  0
 53 50  1  0     0  0
 54 49  1  0     0  0
 55 42  2  0     0  0
 56 42  1  0     0  0
 57 41  2  0     0  0
 58 41  1  0     0  0
 59 55  1  0     0  0
 60 56  2  0     0  0
 61 57  1  0     0  0
 62 58  2  0     0  0
 15 17  1  0     0  0
 34 46  1  0     0  0
 50 61  2  0     0  0
 18 16  1  0     0  0
  5  2  2  0     0  0
 49 59  2  0     0  0
M  END
>  <prID>
430

>  <IDDB>
104496

>  <pIC50_HIV_Integrase>
6.397940009

>  <Q>
-7.380741903

>  <Activity_Integrase>
Active_Integrase

NA
NA
NA
NA
$$$$

  Accelrys05311914302D 1   1.00000     0.00000     0

 64 69  0     0  0            999 V2000
    2.9542   -0.2792    0.0000 C   0  0  0  0  0  0           0  0  0
   -3.1500   -0.0375    0.0000 C   0  0  0  0  0  0           0  0  0
    3.4292   -0.0042    0.0000 S   0  0  3  0  0  0           0  0  0
   -3.6083   -0.3083    0.0000 S   0  0  3  0  0  0           0  0  0
   -3.1500    0.5000    0.0000 C   0  0  0  0  0  0           0  0  0
    2.9583   -0.8333    0.0000 C   0  0  0  0  0  0           0  0  0
    3.4375   -1.1042    0.0000 N   0  0  0  0  0  0           0  0  0
   -3.6208    0.7750    0.0000 N   0  0  0  0  0  0           0  0  0
    2.4875   -1.1083    0.0000 C   0  0  0  0  0  0           0  0  0
   -2.6833    0.7750    0.0000 C   0  0  0  0  0  0           0  0  0
   -2.6833   -0.3083    0.0000 C   0  0  0  0  0  0           0  0  0
    2.4833   -0.0125    0.0000 C   0  0  0  0  0  0           0  0  0
    0.1208   -0.3000    0.0000 C   0  0  0  0  0  0           0  0  0
   -0.3542   -0.0333    0.0000 C   0  0  0  0  0  0           0  0  0
    2.0167   -0.2875    0.0000 C   0  0  0  0  0  0           0  0  0
   -2.2208   -0.0375    0.0000 C   0  0  0  0  0  0           0  0  0
    2.0167   -0.8375    0.0000 C   0  0  0  0  0  0           0  0  0
   -2.2250    0.5000    0.0000 C   0  0  0  0  0  0           0  0  0
    0.5958   -0.0250    0.0000 N   0  0  0  0  0  0           0  0  0
   -0.8208   -0.3083    0.0000 N   0  0  0  0  0  0           0  0  0
    3.4375   -1.6542    0.0000 N   0  0  0  0  0  0           0  0  0
   -3.6208    1.3250    0.0000 N   0  0  0  0  0  0           0  0  0
    3.9458   -0.4167    0.0000 O   0  0  0  0  0  0           0  0  0
   -3.1583   -0.8208    0.0000 O   0  0  0  0  0  0           0  0  0
   -4.0833    0.1208    0.0000 O   0  0  0  0  0  0           0  0  0
    2.9125    0.4125    0.0000 O   0  0  0  0  0  0           0  0  0
    1.5458   -1.1125    0.0000 C   0  0  0  0  0  0           0  0  0
   -1.7625    0.7792    0.0000 C   0  0  0  0  0  0           0  0  0
    1.5417   -0.0167    0.0000 C   0  0  0  0  0  0           0  0  0
   -1.7583   -0.3042    0.0000 C   0  0  0  0  0  0           0  0  0
   -1.3000   -0.0333    0.0000 C   0  0  0  0  0  0           0  0  0
    1.0708   -0.2958    0.0000 C   0  0  0  0  0  0           0  0  0
    6.2792   -1.6375    0.0000 C   0  0  0  0  0  0           0  0  0
   -5.0417    3.7875    0.0000 C   0  0  0  0  0  0           0  0  0
    0.1292   -0.8500    0.0000 O   0  0  0  0  0  0           0  0  0
   -0.3625    0.5167    0.0000 O   0  0  0  0  0  0           0  0  0
    3.8875    0.3292    0.0000 O   0  0  0  0  0  0           0  0  0
   -4.0833   -0.7375    0.0000 O   0  0  0  0  0  0           0  0  0
    6.2792   -1.0917    0.0000 O   0  0  0  0  0  0           0  0  0
   -4.5708    4.0542    0.0000 O   0  0  0  0  0  0           0  0  0
    3.9125   -1.9250    0.0000 C   0  0  0  0  0  0           0  0  0
   -4.0958    1.6000    0.0000 C   0  0  0  0  0  0           0  0  0
    2.4917   -1.6542    0.0000 O   0  0  0  0  0  0           0  0  0
   -2.6875    1.3042    0.0000 O   0  0  0  0  0  0           0  0  0
   -1.3000    0.5042    0.0000 C   0  0  0  0  0  0           0  0  0
    1.0750   -0.8375    0.0000 C   0  0  0  0  0  0           0  0  0
   -5.5208    4.0542    0.0000 O   0  0  0  0  0  0           0  0  0
    6.7583   -1.9083    0.0000 O   0  0  0  0  0  0           0  0  0
   -5.0417    2.1458    0.0000 C   0  0  0  0  0  0           0  0  0
    4.8625   -2.4667    0.0000 C   0  0  0  0  0  0           0  0  0
    3.9167   -2.4750    0.0000 C   0  0  0  0  0  0           0  0  0
    4.3833   -1.6500    0.0000 C   0  0  0  0  0  0           0  0  0
   -4.0958    2.1458    0.0000 C   0  0  0  0  0  0           0  0  0
   -4.5667    1.3250    0.0000 C   0  0  0  0  0  0           0  0  0
    4.3917   -2.7417    0.0000 C   0  0  0  0  0  0           0  0  0
    4.8583   -1.9167    0.0000 C   0  0  0  0  0  0           0  0  0
   -4.5667    2.4208    0.0000 C   0  0  0  0  0  0           0  0  0
   -5.0417    1.5958    0.0000 C   0  0  0  0  0  0           0  0  0
   -5.0417    3.2417    0.0000 C   0  0  0  0  0  0           0  0  0
    5.8083   -1.9167    0.0000 C   0  0  0  0  0  0           0  0  0
    5.8125   -2.4625    0.0000 C   0  0  0  0  0  0           0  0  0
   -5.5208    2.9667    0.0000 C   0  0  0  0  0  0           0  0  0
   -5.5167    2.4208    0.0000 C   0  0  0  0  0  0           0  0  0
    5.3375   -2.7375    0.0000 C   0  0  0  0  0  0           0  0  0
  2 11  1  0     0  0
  3  1  1  0     0  0
  4  2  1  0     0  0
  5 10  1  0     0  0
  6  1  2  0     0  0
  7  6  1  0     0  0
  8  5  1  0     0  0
  9  6  1  0     0  0
 10 18  2  0     0  0
 11 16  2  0     0  0
 12  1  1  0     0  0
 13 19  1  0     0  0
 14 13  1  0     0  0
 15 12  2  0     0  0
 16 30  1  0     0  0
 17  9  2  0     0  0
 18 28  1  0     0  0
 19 32  1  0     0  0
 20 14  1  0     0  0
 21  7  2  0     0  0
 22  8  2  0     0  0
 23  3  2  0     0  0
 24  4  2  0     0  0
 25  4  2  0     0  0
 26  3  2  0     0  0
 27 17  1  0     0  0
 28 45  2  0     0  0
 29 15  1  0     0  0
 30 31  2  0     0  0
 31 20  1  0     0  0
 32 29  2  0     0  0
 33 60  1  0     0  0
 34 59  1  0     0  0
 35 13  2  0     0  0
 36 14  2  0     0  0
 37  3  1  0     0  0
 38  4  1  0     0  0
 39 33  2  0     0  0
 40 34  2  0     0  0
 41 21  1  0     0  0
 42 22  1  0     0  0
 43  9  1  0     0  0
 44 10  1  0     0  0
 45 31  1  0     0  0
 46 27  2  0     0  0
 47 34  1  0     0  0
 48 33  1  0     0  0
 49 58  1  0     0  0
 50 56  1  0     0  0
 51 41  2  0     0  0
 52 41  1  0     0  0
 53 42  2  0     0  0
 54 42  1  0     0  0
 55 51  1  0     0  0
 56 52  2  0     0  0
 57 53  1  0     0  0
 58 54  2  0     0  0
 59 62  1  0     0  0
 60 61  1  0     0  0
 61 64  1  0     0  0
 62 63  1  0     0  0
 63 49  1  0     0  0
 64 50  1  0     0  0
 15 17  1  0     0  0
 32 46  1  0     0  0
 50 55  2  0     0  0
 18 16  1  0     0  0
  5  2  2  0     0  0
 49 57  2  0     0  0
M  END
>  <prID>
431

>  <IDDB>
104497

>  <pIC50_HIV_Integrase>
6.15490196

>  <Q>
-7.898024819

>  <Activity_Integrase>
Active_Integrase

NA
NA
NA
NA
$$$$

  Accelrys05311914302D 1   1.00000     0.00000     0

 62 67  0     0  0            999 V2000
    3.1750   -0.1167    0.0000 C   0  0  0  0  0  0           0  0  0
   -3.1833    0.1333    0.0000 C   0  0  0  0  0  0           0  0  0
    3.6625    0.1667    0.0000 S   0  0  3  0  0  0           0  0  0
   -3.6542   -0.1458    0.0000 S   0  0  3  0  0  0           0  0  0
   -3.1750    0.6958    0.0000 C   0  0  0  0  0  0           0  0  0
    3.1792   -0.6958    0.0000 C   0  0  0  0  0  0           0  0  0
    3.6708   -0.9750    0.0000 N   0  0  0  0  0  0           0  0  0
   -3.6667    0.9833    0.0000 N   0  0  0  0  0  0           0  0  0
    2.6917   -0.9792    0.0000 C   0  0  0  0  0  0           0  0  0
   -2.6958    0.9792    0.0000 C   0  0  0  0  0  0           0  0  0
   -2.6958   -0.1458    0.0000 C   0  0  0  0  0  0           0  0  0
    2.6833    0.1625    0.0000 C   0  0  0  0  0  0           0  0  0
    0.2292   -0.1375    0.0000 C   0  0  0  0  0  0           0  0  0
   -0.2667    0.1417    0.0000 C   0  0  0  0  0  0           0  0  0
    2.2000   -0.1250    0.0000 C   0  0  0  0  0  0           0  0  0
   -2.2167    0.1333    0.0000 C   0  0  0  0  0  0           0  0  0
    2.2000   -0.7000    0.0000 C   0  0  0  0  0  0           0  0  0
   -2.2167    0.6958    0.0000 C   0  0  0  0  0  0           0  0  0
    3.6792   -1.5500    0.0000 N   0  0  0  0  0  0           0  0  0
   -3.6667    1.5542    0.0000 N   0  0  0  0  0  0           0  0  0
    4.1708   -1.8292    0.0000 C   0  0  0  0  0  0           0  0  0
   -4.1625    1.8417    0.0000 C   0  0  0  0  0  0           0  0  0
    0.7167    0.1500    0.0000 N   0  0  0  0  0  0           0  0  0
   -0.7583   -0.1458    0.0000 N   0  0  0  0  0  0           0  0  0
    5.6583   -2.6750    0.0000 C   0  0  0  0  0  0           0  0  0
   -5.6417    2.6958    0.0000 C   0  0  0  0  0  0           0  0  0
   -5.1417    2.4042    0.0000 C   0  0  0  0  0  0           0  0  0
    5.1583   -2.3958    0.0000 C   0  0  0  0  0  0           0  0  0
    4.1708   -2.4000    0.0000 C   0  0  0  0  0  0           0  0  0
   -4.1625    2.4042    0.0000 C   0  0  0  0  0  0           0  0  0
    4.6667   -2.6792    0.0000 C   0  0  0  0  0  0           0  0  0
   -4.6542    2.6958    0.0000 C   0  0  0  0  0  0           0  0  0
   -3.1833   -0.6792    0.0000 O   0  0  0  0  0  0           0  0  0
   -4.1458    0.3000    0.0000 O   0  0  0  0  0  0           0  0  0
    4.2083   -0.2583    0.0000 O   0  0  0  0  0  0           0  0  0
    3.1333    0.6000    0.0000 O   0  0  0  0  0  0           0  0  0
   -1.7333    0.9833    0.0000 C   0  0  0  0  0  0           0  0  0
    1.7083   -0.9792    0.0000 C   0  0  0  0  0  0           0  0  0
    1.7042    0.1583    0.0000 C   0  0  0  0  0  0           0  0  0
   -1.7292   -0.1417    0.0000 C   0  0  0  0  0  0           0  0  0
    1.2167   -0.1333    0.0000 C   0  0  0  0  0  0           0  0  0
   -1.2500    0.1417    0.0000 C   0  0  0  0  0  0           0  0  0
    0.2333   -0.7083    0.0000 O   0  0  0  0  0  0           0  0  0
   -0.2750    0.7083    0.0000 O   0  0  0  0  0  0           0  0  0
    4.1417    0.5167    0.0000 O   0  0  0  0  0  0           0  0  0
   -4.1542   -0.5958    0.0000 O   0  0  0  0  0  0           0  0  0
    5.6583   -3.2417    0.0000 O   0  0  0  0  0  0           0  0  0
   -5.6417    3.2625    0.0000 O   0  0  0  0  0  0           0  0  0
    4.6583   -1.5375    0.0000 C   0  0  0  0  0  0           0  0  0
   -4.6542    1.5542    0.0000 C   0  0  0  0  0  0           0  0  0
   -5.1417    1.8333    0.0000 C   0  0  0  0  0  0           0  0  0
    5.1583   -1.8167    0.0000 C   0  0  0  0  0  0           0  0  0
    2.6917   -1.5500    0.0000 O   0  0  0  0  0  0           0  0  0
   -2.6958    1.5333    0.0000 O   0  0  0  0  0  0           0  0  0
    1.2167   -0.7000    0.0000 C   0  0  0  0  0  0           0  0  0
   -1.2500    0.7000    0.0000 C   0  0  0  0  0  0           0  0  0
   -6.1250    2.4042    0.0000 O   0  0  0  0  0  0           0  0  0
    6.1458   -2.3875    0.0000 O   0  0  0  0  0  0           0  0  0
   -3.6625    2.6958    0.0000 O   0  0  0  0  0  0           0  0  0
    3.6792   -2.6833    0.0000 O   0  0  0  0  0  0           0  0  0
   -3.1750    2.4042    0.0000 C   0  0  0  0  0  0           0  0  0
    3.1833   -2.4042    0.0000 C   0  0  0  0  0  0           0  0  0
  2 11  1  0     0  0
  3  1  1  0     0  0
  4  2  1  0     0  0
  5 10  1  0     0  0
  6  1  2  0     0  0
  7  6  1  0     0  0
  8  5  1  0     0  0
  9  6  1  0     0  0
 10 18  2  0     0  0
 11 16  2  0     0  0
 12  1  1  0     0  0
 13 23  1  0     0  0
 14 13  1  0     0  0
 15 12  2  0     0  0
 16 40  1  0     0  0
 17  9  2  0     0  0
 18 37  1  0     0  0
 19  7  2  0     0  0
 20  8  2  0     0  0
 21 19  1  0     0  0
 22 20  1  0     0  0
 23 41  1  0     0  0
 24 14  1  0     0  0
 25 28  1  0     0  0
 26 27  1  0     0  0
 27 51  1  0     0  0
 28 52  1  0     0  0
 29 21  2  0     0  0
 30 22  2  0     0  0
 31 29  1  0     0  0
 32 30  1  0     0  0
 33  4  2  0     0  0
 34  4  2  0     0  0
 35  3  2  0     0  0
 36  3  2  0     0  0
 37 56  2  0     0  0
 38 17  1  0     0  0
 39 15  1  0     0  0
 40 42  2  0     0  0
 41 39  2  0     0  0
 42 24  1  0     0  0
 43 13  2  0     0  0
 44 14  2  0     0  0
 45  3  1  0     0  0
 46  4  1  0     0  0
 47 25  2  0     0  0
 48 26  2  0     0  0
 49 21  1  0     0  0
 50 22  1  0     0  0
 51 50  2  0     0  0
 52 49  2  0     0  0
 53  9  1  0     0  0
 54 10  1  0     0  0
 55 38  2  0     0  0
 56 42  1  0     0  0
 57 26  1  0     0  0
 58 25  1  0     0  0
 59 30  1  0     0  0
 60 29  1  0     0  0
 61 59  1  0     0  0
 62 60  1  0     0  0
 15 17  1  0     0  0
 41 55  1  0     0  0
 28 31  2  0     0  0
 18 16  1  0     0  0
  5  2  2  0     0  0
 27 32  2  0     0  0
M  END
>  <prID>
432

>  <IDDB>
104501

>  <pIC50_HIV_Integrase>
6.522878745

>  <Q>
-6.658075415

>  <Activity_Integrase>
Active_Integrase

NA
NA
NA
NA
$$$$

  Accelrys05311914302D 1   1.00000     0.00000     0

 64 69  0     0  0            999 V2000
    3.1750   -0.1167    0.0000 C   0  0  0  0  0  0           0  0  0
   -3.1833    0.1333    0.0000 C   0  0  0  0  0  0           0  0  0
    3.6625    0.1667    0.0000 S   0  0  3  0  0  0           0  0  0
   -3.6542   -0.1458    0.0000 S   0  0  3  0  0  0           0  0  0
   -3.1833    0.6917    0.0000 C   0  0  0  0  0  0           0  0  0
    3.1792   -0.6958    0.0000 C   0  0  0  0  0  0           0  0  0
    5.1583   -2.3958    0.0000 C   0  0  0  0  0  0           0  0  0
   -5.1417    2.4042    0.0000 C   0  0  0  0  0  0           0  0  0
   -3.6667    0.9833    0.0000 N   0  0  0  0  0  0           0  0  0
    3.6708   -0.9792    0.0000 N   0  0  0  0  0  0           0  0  0
   -2.6958    0.9792    0.0000 C   0  0  0  0  0  0           0  0  0
    2.6917   -0.9792    0.0000 C   0  0  0  0  0  0           0  0  0
    2.6833    0.1625    0.0000 C   0  0  0  0  0  0           0  0  0
   -2.6958   -0.1458    0.0000 C   0  0  0  0  0  0           0  0  0
    0.2292   -0.1375    0.0000 C   0  0  0  0  0  0           0  0  0
   -0.2667    0.1417    0.0000 C   0  0  0  0  0  0           0  0  0
   -2.2125    0.1333    0.0000 C   0  0  0  0  0  0           0  0  0
    2.2000   -0.1250    0.0000 C   0  0  0  0  0  0           0  0  0
   -3.6667    1.5542    0.0000 N   0  0  0  0  0  0           0  0  0
    3.6792   -1.5500    0.0000 N   0  0  0  0  0  0           0  0  0
   -4.1625    1.8417    0.0000 C   0  0  0  0  0  0           0  0  0
    4.1708   -1.8292    0.0000 C   0  0  0  0  0  0           0  0  0
   -2.2125    0.6958    0.0000 C   0  0  0  0  0  0           0  0  0
    2.2000   -0.7000    0.0000 C   0  0  0  0  0  0           0  0  0
   -5.1417    1.8333    0.0000 C   0  0  0  0  0  0           0  0  0
    5.1583   -1.8167    0.0000 C   0  0  0  0  0  0           0  0  0
   -4.6500    2.6958    0.0000 C   0  0  0  0  0  0           0  0  0
    4.6667   -2.6792    0.0000 C   0  0  0  0  0  0           0  0  0
    5.6583   -2.6750    0.0000 C   0  0  0  0  0  0           0  0  0
   -5.6417    2.6958    0.0000 C   0  0  0  0  0  0           0  0  0
    4.6583   -1.5375    0.0000 C   0  0  0  0  0  0           0  0  0
   -4.6500    1.5500    0.0000 C   0  0  0  0  0  0           0  0  0
    4.1708   -2.4000    0.0000 C   0  0  0  0  0  0           0  0  0
   -4.1625    2.4042    0.0000 C   0  0  0  0  0  0           0  0  0
    0.7167    0.1500    0.0000 N   0  0  0  0  0  0           0  0  0
   -0.7583   -0.1458    0.0000 N   0  0  0  0  0  0           0  0  0
    4.2083   -0.2583    0.0000 O   0  0  0  0  0  0           0  0  0
    3.1333    0.6000    0.0000 O   0  0  0  0  0  0           0  0  0
   -3.1833   -0.6792    0.0000 O   0  0  0  0  0  0           0  0  0
   -4.1458    0.3000    0.0000 O   0  0  0  0  0  0           0  0  0
   -1.7333    0.9833    0.0000 C   0  0  0  0  0  0           0  0  0
    1.7083   -0.9833    0.0000 C   0  0  0  0  0  0           0  0  0
    1.7042    0.1583    0.0000 C   0  0  0  0  0  0           0  0  0
   -1.7292   -0.1458    0.0000 C   0  0  0  0  0  0           0  0  0
    1.2167   -0.1333    0.0000 C   0  0  0  0  0  0           0  0  0
   -1.2500    0.1417    0.0000 C   0  0  0  0  0  0           0  0  0
   -0.2750    0.7083    0.0000 O   0  0  0  0  0  0           0  0  0
    0.2333   -0.7083    0.0000 O   0  0  0  0  0  0           0  0  0
    4.1417    0.5167    0.0000 O   0  0  0  0  0  0           0  0  0
   -4.1542   -0.5958    0.0000 O   0  0  0  0  0  0           0  0  0
    5.6583   -3.2417    0.0000 O   0  0  0  0  0  0           0  0  0
   -5.6417    3.2625    0.0000 O   0  0  0  0  0  0           0  0  0
    2.6917   -1.5500    0.0000 O   0  0  0  0  0  0           0  0  0
   -2.6958    1.5333    0.0000 O   0  0  0  0  0  0           0  0  0
    1.2167   -0.7000    0.0000 C   0  0  0  0  0  0           0  0  0
   -1.2500    0.7000    0.0000 C   0  0  0  0  0  0           0  0  0
   -3.6625    2.6958    0.0000 Cl  0  0  0  0  0  0           0  0  0
    3.6792   -2.6833    0.0000 Cl  0  0  0  0  0  0           0  0  0
   -6.1250    2.4042    0.0000 O   0  0  0  0  0  0           0  0  0
    6.1458   -2.3875    0.0000 O   0  0  0  0  0  0           0  0  0
   -5.6417    1.5458    0.0000 O   0  0  0  0  0  0           0  0  0
    5.6458   -1.5333    0.0000 O   0  0  0  0  0  0           0  0  0
    5.6375   -0.9583    0.0000 C   0  0  0  0  0  0           0  0  0
   -5.6375    0.9792    0.0000 C   0  0  0  0  0  0           0  0  0
  2 14  1  0     0  0
  3  1  1  0     0  0
  4  2  1  0     0  0
  5 11  1  0     0  0
  6  1  2  0     0  0
  7 28  2  0     0  0
  8 27  2  0     0  0
  9  5  1  0     0  0
 10  6  1  0     0  0
 11 23  2  0     0  0
 12  6  1  0     0  0
 13  1  1  0     0  0
 14 17  2  0     0  0
 15 35  1  0     0  0
 16 15  1  0     0  0
 17 44  1  0     0  0
 18 13  2  0     0  0
 19  9  2  0     0  0
 20 10  2  0     0  0
 21 19  1  0     0  0
 22 20  1  0     0  0
 23 41  1  0     0  0
 24 12  2  0     0  0
 25 32  2  0     0  0
 26 31  2  0     0  0
 27 34  1  0     0  0
 28 33  1  0     0  0
 29  7  1  0     0  0
 30  8  1  0     0  0
 31 22  1  0     0  0
 32 21  1  0     0  0
 33 22  2  0     0  0
 34 21  2  0     0  0
 35 45  1  0     0  0
 36 16  1  0     0  0
 37  3  2  0     0  0
 38  3  2  0     0  0
 39  4  2  0     0  0
 40  4  2  0     0  0
 41 56  2  0     0  0
 42 24  1  0     0  0
 43 18  1  0     0  0
 44 46  2  0     0  0
 45 43  2  0     0  0
 46 36  1  0     0  0
 47 16  2  0     0  0
 48 15  2  0     0  0
 49  3  1  0     0  0
 50  4  1  0     0  0
 51 29  2  0     0  0
 52 30  2  0     0  0
 53 12  1  0     0  0
 54 11  1  0     0  0
 55 42  2  0     0  0
 56 46  1  0     0  0
 57 34  1  0     0  0
 58 33  1  0     0  0
 59 30  1  0     0  0
 60 29  1  0     0  0
 61 25  1  0     0  0
 62 26  1  0     0  0
 63 62  1  0     0  0
 64 61  1  0     0  0
 18 24  1  0     0  0
 45 55  1  0     0  0
  7 26  1  0     0  0
 23 17  1  0     0  0
  5  2  2  0     0  0
  8 25  1  0     0  0
M  END
>  <prID>
433

>  <IDDB>
104502

>  <pIC50_HIV_Integrase>
6.15490196

>  <Q>
-8.551931527

>  <Activity_Integrase>
Active_Integrase

NA
NA
NA
NA
$$$$

  Accelrys05311914302D 1   1.00000     0.00000     0

 66 71  0     0  0            999 V2000
    3.1750   -0.1167    0.0000 C   0  0  0  0  0  0           0  0  0
   -3.1833    0.1333    0.0000 C   0  0  0  0  0  0           0  0  0
    3.6708    0.1667    0.0000 S   0  0  3  0  0  0           0  0  0
   -3.6542   -0.1458    0.0000 S   0  0  3  0  0  0           0  0  0
   -3.1833    0.6958    0.0000 C   0  0  0  0  0  0           0  0  0
    3.1792   -0.6958    0.0000 C   0  0  0  0  0  0           0  0  0
    4.1708   -1.8292    0.0000 C   0  0  0  0  0  0           0  0  0
   -4.1625    1.8417    0.0000 C   0  0  0  0  0  0           0  0  0
    4.1792   -2.4000    0.0000 C   0  0  0  0  0  0           0  0  0
   -4.1625    2.4083    0.0000 C   0  0  0  0  0  0           0  0  0
    3.6792   -0.9792    0.0000 N   0  0  0  0  0  0           0  0  0
   -3.6667    0.9833    0.0000 N   0  0  0  0  0  0           0  0  0
    3.6792   -1.5458    0.0000 N   0  0  0  0  0  0           0  0  0
   -3.6667    1.5542    0.0000 N   0  0  0  0  0  0           0  0  0
   -2.6958    0.9792    0.0000 C   0  0  0  0  0  0           0  0  0
    2.6917   -0.9792    0.0000 C   0  0  0  0  0  0           0  0  0
   -4.6583    1.5542    0.0000 C   0  0  0  0  0  0           0  0  0
    4.6583   -1.5375    0.0000 C   0  0  0  0  0  0           0  0  0
   -2.6958   -0.1458    0.0000 C   0  0  0  0  0  0           0  0  0
    2.6917    0.1625    0.0000 C   0  0  0  0  0  0           0  0  0
   -0.2667    0.1417    0.0000 C   0  0  0  0  0  0           0  0  0
    0.2292   -0.1375    0.0000 C   0  0  0  0  0  0           0  0  0
    2.2000   -0.1250    0.0000 C   0  0  0  0  0  0           0  0  0
   -2.2167    0.1333    0.0000 C   0  0  0  0  0  0           0  0  0
    2.2000   -0.7000    0.0000 C   0  0  0  0  0  0           0  0  0
   -2.2167    0.6958    0.0000 C   0  0  0  0  0  0           0  0  0
    3.6792   -2.6833    0.0000 C   0  0  0  0  0  0           0  0  0
   -3.6667    2.6958    0.0000 C   0  0  0  0  0  0           0  0  0
    0.7167    0.1500    0.0000 N   0  0  0  0  0  0           0  0  0
   -0.7583   -0.1458    0.0000 N   0  0  0  0  0  0           0  0  0
   -4.6583    2.6958    0.0000 C   0  0  0  0  0  0           0  0  0
    4.6708   -2.6792    0.0000 C   0  0  0  0  0  0           0  0  0
   -3.1875   -0.6792    0.0000 O   0  0  0  0  0  0           0  0  0
   -4.1542    0.3000    0.0000 O   0  0  0  0  0  0           0  0  0
    3.1333    0.6000    0.0000 O   0  0  0  0  0  0           0  0  0
    4.2083   -0.2583    0.0000 O   0  0  0  0  0  0           0  0  0
   -1.7375    0.9833    0.0000 C   0  0  0  0  0  0           0  0  0
    1.7083   -0.9833    0.0000 C   0  0  0  0  0  0           0  0  0
    5.1583   -1.8208    0.0000 C   0  0  0  0  0  0           0  0  0
   -5.1500    1.8375    0.0000 C   0  0  0  0  0  0           0  0  0
    1.7042    0.1583    0.0000 C   0  0  0  0  0  0           0  0  0
   -1.7292   -0.1458    0.0000 C   0  0  0  0  0  0           0  0  0
    1.2167   -0.1333    0.0000 C   0  0  0  0  0  0           0  0  0
   -1.2542    0.1417    0.0000 C   0  0  0  0  0  0           0  0  0
   -0.2750    0.7125    0.0000 O   0  0  0  0  0  0           0  0  0
    0.2333   -0.7083    0.0000 O   0  0  0  0  0  0           0  0  0
   -4.1542   -0.6000    0.0000 O   0  0  0  0  0  0           0  0  0
    4.1417    0.5208    0.0000 O   0  0  0  0  0  0           0  0  0
    3.6792   -3.2583    0.0000 O   0  0  0  0  0  0           0  0  0
   -3.6625    3.2625    0.0000 O   0  0  0  0  0  0           0  0  0
   -5.1500    2.4083    0.0000 C   0  0  0  0  0  0           0  0  0
    5.1583   -2.3958    0.0000 C   0  0  0  0  0  0           0  0  0
    2.6917   -1.5458    0.0000 O   0  0  0  0  0  0           0  0  0
   -2.6958    1.5375    0.0000 O   0  0  0  0  0  0           0  0  0
    4.6583   -0.9708    0.0000 O   0  0  0  0  0  0           0  0  0
   -4.6500    0.9833    0.0000 O   0  0  0  0  0  0           0  0  0
   -1.2542    0.7000    0.0000 C   0  0  0  0  0  0           0  0  0
    1.2167   -0.7000    0.0000 C   0  0  0  0  0  0           0  0  0
   -3.1750    2.4083    0.0000 O   0  0  0  0  0  0           0  0  0
    3.1833   -2.4000    0.0000 O   0  0  0  0  0  0           0  0  0
    5.6500   -1.5333    0.0000 O   0  0  0  0  0  0           0  0  0
   -5.6417    1.5500    0.0000 O   0  0  0  0  0  0           0  0  0
    5.1500   -0.6792    0.0000 C   0  0  0  0  0  0           0  0  0
   -5.1417    0.6958    0.0000 C   0  0  0  0  0  0           0  0  0
    6.1458   -1.8125    0.0000 C   0  0  0  0  0  0           0  0  0
   -6.1250    1.8333    0.0000 C   0  0  0  0  0  0           0  0  0
  2 19  1  0     0  0
  3  1  1  0     0  0
  4  2  1  0     0  0
  5 15  1  0     0  0
  6  1  2  0     0  0
  7 13  1  0     0  0
  8 14  1  0     0  0
  9  7  2  0     0  0
 10  8  2  0     0  0
 11  6  1  0     0  0
 12  5  1  0     0  0
 13 11  2  0     0  0
 14 12  2  0     0  0
 15 26  2  0     0  0
 16  6  1  0     0  0
 17  8  1  0     0  0
 18  7  1  0     0  0
 19 24  2  0     0  0
 20  1  1  0     0  0
 21 22  1  0     0  0
 22 29  1  0     0  0
 23 20  2  0     0  0
 24 42  1  0     0  0
 25 16  2  0     0  0
 26 37  1  0     0  0
 27  9  1  0     0  0
 28 10  1  0     0  0
 29 43  1  0     0  0
 30 21  1  0     0  0
 31 10  1  0     0  0
 32  9  1  0     0  0
 33  4  2  0     0  0
 34  4  2  0     0  0
 35  3  2  0     0  0
 36  3  2  0     0  0
 37 57  2  0     0  0
 38 25  1  0     0  0
 39 18  2  0     0  0
 40 17  2  0     0  0
 41 23  1  0     0  0
 42 44  2  0     0  0
 43 41  2  0     0  0
 44 30  1  0     0  0
 45 21  2  0     0  0
 46 22  2  0     0  0
 47  4  1  0     0  0
 48  3  1  0     0  0
 49 27  2  0     0  0
 50 28  2  0     0  0
 51 31  2  0     0  0
 52 32  2  0     0  0
 53 16  1  0     0  0
 54 15  1  0     0  0
 55 18  1  0     0  0
 56 17  1  0     0  0
 57 44  1  0     0  0
 58 38  2  0     0  0
 59 28  1  0     0  0
 60 27  1  0     0  0
 61 39  1  0     0  0
 62 40  1  0     0  0
 63 55  1  0     0  0
 64 56  1  0     0  0
 65 61  1  0     0  0
 66 62  1  0     0  0
 25 23  1  0     0  0
 58 43  1  0     0  0
 52 39  1  0     0  0
 26 24  1  0     0  0
  5  2  2  0     0  0
 51 40  1  0     0  0
M  END
>  <prID>
434

>  <IDDB>
104503

>  <pIC50_HIV_Integrase>
5.698970004

>  <Q>
-7.14832948

>  <Activity_Integrase>
Inactive_Integrase

NA
NA
NA
NA
$$$$

  Accelrys05311914302D 1   1.00000     0.00000     0

 70 75  0     0  0            999 V2000
    3.1708   -0.1167    0.0000 C   0  0  0  0  0  0           0  0  0
   -3.1833    0.1333    0.0000 C   0  0  0  0  0  0           0  0  0
    3.6625    0.1667    0.0000 S   0  0  3  0  0  0           0  0  0
   -3.6542   -0.1458    0.0000 S   0  0  3  0  0  0           0  0  0
   -3.1833    0.6917    0.0000 C   0  0  0  0  0  0           0  0  0
    3.1792   -0.6958    0.0000 C   0  0  0  0  0  0           0  0  0
    4.1708   -1.8333    0.0000 C   0  0  0  0  0  0           0  0  0
   -4.1625    1.8417    0.0000 C   0  0  0  0  0  0           0  0  0
    4.1708   -2.4000    0.0000 C   0  0  0  0  0  0           0  0  0
   -4.1625    2.4042    0.0000 C   0  0  0  0  0  0           0  0  0
   -4.6542    1.5500    0.0000 C   0  0  0  0  0  0           0  0  0
    4.6583   -1.5375    0.0000 C   0  0  0  0  0  0           0  0  0
   -3.6667    0.9833    0.0000 N   0  0  0  0  0  0           0  0  0
    3.6708   -0.9792    0.0000 N   0  0  0  0  0  0           0  0  0
   -3.6667    1.5542    0.0000 N   0  0  0  0  0  0           0  0  0
    3.6792   -1.5458    0.0000 N   0  0  0  0  0  0           0  0  0
    2.6917   -0.9792    0.0000 C   0  0  0  0  0  0           0  0  0
   -2.6958    0.9792    0.0000 C   0  0  0  0  0  0           0  0  0
    5.1583   -1.8167    0.0000 C   0  0  0  0  0  0           0  0  0
   -5.1417    1.8375    0.0000 C   0  0  0  0  0  0           0  0  0
    2.6833    0.1625    0.0000 C   0  0  0  0  0  0           0  0  0
   -2.6958   -0.1458    0.0000 C   0  0  0  0  0  0           0  0  0
   -0.2667    0.1417    0.0000 C   0  0  0  0  0  0           0  0  0
    0.2292   -0.1375    0.0000 C   0  0  0  0  0  0           0  0  0
   -2.2167    0.1333    0.0000 C   0  0  0  0  0  0           0  0  0
    2.2000   -0.1250    0.0000 C   0  0  0  0  0  0           0  0  0
    4.6667   -2.6792    0.0000 C   0  0  0  0  0  0           0  0  0
   -4.6583    2.6917    0.0000 C   0  0  0  0  0  0           0  0  0
    2.2000   -0.7000    0.0000 C   0  0  0  0  0  0           0  0  0
   -2.2167    0.6958    0.0000 C   0  0  0  0  0  0           0  0  0
    3.6792   -2.6833    0.0000 C   0  0  0  0  0  0           0  0  0
   -3.6625    2.6917    0.0000 C   0  0  0  0  0  0           0  0  0
    5.1583   -2.3917    0.0000 C   0  0  0  0  0  0           0  0  0
   -5.1500    2.4042    0.0000 C   0  0  0  0  0  0           0  0  0
    0.7167    0.1500    0.0000 N   0  0  0  0  0  0           0  0  0
   -0.7583   -0.1458    0.0000 N   0  0  0  0  0  0           0  0  0
    3.1333    0.6000    0.0000 O   0  0  0  0  0  0           0  0  0
    4.2083   -0.2583    0.0000 O   0  0  0  0  0  0           0  0  0
   -3.1833   -0.6792    0.0000 O   0  0  0  0  0  0           0  0  0
   -4.1542    0.3000    0.0000 O   0  0  0  0  0  0           0  0  0
   -1.7375    0.9833    0.0000 C   0  0  0  0  0  0           0  0  0
    1.7083   -0.9833    0.0000 C   0  0  0  0  0  0           0  0  0
    1.7042    0.1583    0.0000 C   0  0  0  0  0  0           0  0  0
   -1.7292   -0.1458    0.0000 C   0  0  0  0  0  0           0  0  0
    1.2167   -0.1333    0.0000 C   0  0  0  0  0  0           0  0  0
   -1.2542    0.1417    0.0000 C   0  0  0  0  0  0           0  0  0
   -0.2750    0.7083    0.0000 O   0  0  0  0  0  0           0  0  0
    0.2333   -0.7083    0.0000 O   0  0  0  0  0  0           0  0  0
    4.1417    0.5167    0.0000 O   0  0  0  0  0  0           0  0  0
   -4.1542   -0.5958    0.0000 O   0  0  0  0  0  0           0  0  0
    3.6792   -3.2542    0.0000 O   0  0  0  0  0  0           0  0  0
   -3.6625    3.2625    0.0000 O   0  0  0  0  0  0           0  0  0
    4.6583   -0.9708    0.0000 O   0  0  0  0  0  0           0  0  0
   -4.6500    0.9833    0.0000 O   0  0  0  0  0  0           0  0  0
   -2.6958    1.5333    0.0000 O   0  0  0  0  0  0           0  0  0
    2.6917   -1.5458    0.0000 O   0  0  0  0  0  0           0  0  0
   -5.6417    1.5458    0.0000 O   0  0  0  0  0  0           0  0  0
    5.6458   -1.5333    0.0000 O   0  0  0  0  0  0           0  0  0
   -1.2542    0.7000    0.0000 C   0  0  0  0  0  0           0  0  0
    1.2167   -0.7000    0.0000 C   0  0  0  0  0  0           0  0  0
   -3.1750    2.4042    0.0000 O   0  0  0  0  0  0           0  0  0
    3.1833   -2.4000    0.0000 O   0  0  0  0  0  0           0  0  0
    5.6583   -2.6792    0.0000 O   0  0  0  0  0  0           0  0  0
   -5.6417    2.6917    0.0000 O   0  0  0  0  0  0           0  0  0
   -5.1417    0.6958    0.0000 C   0  0  0  0  0  0           0  0  0
    5.1458   -0.6792    0.0000 C   0  0  0  0  0  0           0  0  0
    6.1417   -1.8125    0.0000 C   0  0  0  0  0  0           0  0  0
   -6.1208    1.8292    0.0000 C   0  0  0  0  0  0           0  0  0
    6.1458   -2.3875    0.0000 C   0  0  0  0  0  0           0  0  0
   -6.1250    2.4042    0.0000 C   0  0  0  0  0  0           0  0  0
  2 22  1  0     0  0
  3  1  1  0     0  0
  4  2  1  0     0  0
  5 18  1  0     0  0
  6  1  2  0     0  0
  7 16  1  0     0  0
  8 15  1  0     0  0
  9  7  2  0     0  0
 10  8  2  0     0  0
 11  8  1  0     0  0
 12  7  1  0     0  0
 13  5  1  0     0  0
 14  6  1  0     0  0
 15 13  2  0     0  0
 16 14  2  0     0  0
 17  6  1  0     0  0
 18 30  2  0     0  0
 19 12  2  0     0  0
 20 11  2  0     0  0
 21  1  1  0     0  0
 22 25  2  0     0  0
 23 24  1  0     0  0
 24 35  1  0     0  0
 25 44  1  0     0  0
 26 21  2  0     0  0
 27  9  1  0     0  0
 28 10  1  0     0  0
 29 17  2  0     0  0
 30 41  1  0     0  0
 31  9  1  0     0  0
 32 10  1  0     0  0
 33 27  2  0     0  0
 34 28  2  0     0  0
 35 45  1  0     0  0
 36 23  1  0     0  0
 37  3  2  0     0  0
 38  3  2  0     0  0
 39  4  2  0     0  0
 40  4  2  0     0  0
 41 59  2  0     0  0
 42 29  1  0     0  0
 43 26  1  0     0  0
 44 46  2  0     0  0
 45 43  2  0     0  0
 46 36  1  0     0  0
 47 23  2  0     0  0
 48 24  2  0     0  0
 49  3  1  0     0  0
 50  4  1  0     0  0
 51 31  2  0     0  0
 52 32  2  0     0  0
 53 12  1  0     0  0
 54 11  1  0     0  0
 55 18  1  0     0  0
 56 17  1  0     0  0
 57 20  1  0     0  0
 58 19  1  0     0  0
 59 46  1  0     0  0
 60 42  2  0     0  0
 61 32  1  0     0  0
 62 31  1  0     0  0
 63 33  1  0     0  0
 64 34  1  0     0  0
 65 54  1  0     0  0
 66 53  1  0     0  0
 67 58  1  0     0  0
 68 57  1  0     0  0
 69 63  1  0     0  0
 70 64  1  0     0  0
 29 26  1  0     0  0
 60 45  1  0     0  0
 33 19  1  0     0  0
 30 25  1  0     0  0
  5  2  2  0     0  0
 34 20  1  0     0  0
M  END
>  <prID>
435

>  <IDDB>
104504

>  <pIC50_HIV_Integrase>
6.15490196

>  <Q>
-7.612520233

>  <Activity_Integrase>
Active_Integrase

NA
NA
NA
NA
$$$$

  Accelrys05311914302D 1   1.00000     0.00000     0

 64 69  0     0  0            999 V2000
    3.1750   -0.1167    0.0000 C   0  0  0  0  0  0           0  0  0
   -3.1833    0.1375    0.0000 C   0  0  0  0  0  0           0  0  0
    3.6708    0.1667    0.0000 S   0  0  3  0  0  0           0  0  0
   -3.6583   -0.1458    0.0000 S   0  0  3  0  0  0           0  0  0
   -3.1833    0.6958    0.0000 C   0  0  0  0  0  0           0  0  0
    3.1792   -0.6958    0.0000 C   0  0  0  0  0  0           0  0  0
    3.6792   -0.9792    0.0000 N   0  0  0  0  0  0           0  0  0
   -3.6667    0.9833    0.0000 N   0  0  0  0  0  0           0  0  0
    4.1792   -2.4000    0.0000 C   0  0  0  0  0  0           0  0  0
   -4.1625    2.4125    0.0000 C   0  0  0  0  0  0           0  0  0
   -2.6958    0.9833    0.0000 C   0  0  0  0  0  0           0  0  0
    2.6917   -0.9792    0.0000 C   0  0  0  0  0  0           0  0  0
    2.6917    0.1667    0.0000 C   0  0  0  0  0  0           0  0  0
   -2.6958   -0.1458    0.0000 C   0  0  0  0  0  0           0  0  0
    0.2292   -0.1375    0.0000 C   0  0  0  0  0  0           0  0  0
   -0.2667    0.1417    0.0000 C   0  0  0  0  0  0           0  0  0
   -4.1625    1.8417    0.0000 C   0  0  0  0  0  0           0  0  0
    4.1708   -1.8292    0.0000 C   0  0  0  0  0  0           0  0  0
    2.2000   -0.1208    0.0000 C   0  0  0  0  0  0           0  0  0
   -2.2167    0.1375    0.0000 C   0  0  0  0  0  0           0  0  0
    3.6792   -1.5458    0.0000 N   0  0  0  0  0  0           0  0  0
   -3.6667    1.5583    0.0000 N   0  0  0  0  0  0           0  0  0
   -2.2167    0.6958    0.0000 C   0  0  0  0  0  0           0  0  0
    2.2000   -0.7000    0.0000 C   0  0  0  0  0  0           0  0  0
    3.6792   -2.6833    0.0000 C   0  0  0  0  0  0           0  0  0
   -3.6667    2.6958    0.0000 C   0  0  0  0  0  0           0  0  0
    0.7167    0.1500    0.0000 N   0  0  0  0  0  0           0  0  0
   -0.7583   -0.1458    0.0000 N   0  0  0  0  0  0           0  0  0
    5.6458   -1.5333    0.0000 C   0  0  0  0  0  0           0  0  0
   -5.6417    1.5500    0.0000 C   0  0  0  0  0  0           0  0  0
   -5.1500    1.8375    0.0000 C   0  0  0  0  0  0           0  0  0
    5.1583   -1.8208    0.0000 C   0  0  0  0  0  0           0  0  0
   -4.6583    2.7000    0.0000 C   0  0  0  0  0  0           0  0  0
    4.6667   -2.6792    0.0000 C   0  0  0  0  0  0           0  0  0
    4.6583   -1.5375    0.0000 C   0  0  0  0  0  0           0  0  0
   -4.6583    1.5583    0.0000 C   0  0  0  0  0  0           0  0  0
    3.1333    0.6000    0.0000 O   0  0  0  0  0  0           0  0  0
    4.2083   -0.2583    0.0000 O   0  0  0  0  0  0           0  0  0
   -3.1833   -0.6792    0.0000 O   0  0  0  0  0  0           0  0  0
   -4.1542    0.3000    0.0000 O   0  0  0  0  0  0           0  0  0
   -1.7375    0.9833    0.0000 C   0  0  0  0  0  0           0  0  0
    1.7083   -0.9833    0.0000 C   0  0  0  0  0  0           0  0  0
    1.7042    0.1583    0.0000 C   0  0  0  0  0  0           0  0  0
   -1.7292   -0.1458    0.0000 C   0  0  0  0  0  0           0  0  0
    1.2167   -0.1333    0.0000 C   0  0  0  0  0  0           0  0  0
   -1.2583    0.1417    0.0000 C   0  0  0  0  0  0           0  0  0
   -0.2792    0.7125    0.0000 O   0  0  0  0  0  0           0  0  0
    0.2333   -0.7083    0.0000 O   0  0  0  0  0  0           0  0  0
   -5.1500    2.4125    0.0000 C   0  0  0  0  0  0           0  0  0
    5.1583   -2.3958    0.0000 C   0  0  0  0  0  0           0  0  0
   -4.1083   -0.6667    0.0000 O   0  0  0  0  0  0           0  0  0
    4.1500    0.5208    0.0000 O   0  0  0  0  0  0           0  0  0
   -3.6625    3.2625    0.0000 O   0  0  0  0  0  0           0  0  0
    3.6833   -3.2583    0.0000 O   0  0  0  0  0  0           0  0  0
    5.6458   -0.9583    0.0000 O   0  0  0  0  0  0           0  0  0
   -5.6417    0.9833    0.0000 O   0  0  0  0  0  0           0  0  0
    2.6917   -1.5458    0.0000 O   0  0  0  0  0  0           0  0  0
   -2.6958    1.5375    0.0000 O   0  0  0  0  0  0           0  0  0
    1.2167   -0.7000    0.0000 C   0  0  0  0  0  0           0  0  0
   -1.2583    0.7000    0.0000 C   0  0  0  0  0  0           0  0  0
   -3.1750    2.4083    0.0000 O   0  0  0  0  0  0           0  0  0
    3.1875   -2.4000    0.0000 O   0  0  0  0  0  0           0  0  0
   -6.1250    1.8375    0.0000 O   0  0  0  0  0  0           0  0  0
    6.1458   -1.8125    0.0000 O   0  0  0  0  0  0           0  0  0
  2 14  1  0     0  0
  3  1  1  0     0  0
  4  2  1  0     0  0
  5 11  1  0     0  0
  6  1  2  0     0  0
  7  6  1  0     0  0
  8  5  1  0     0  0
  9 18  2  0     0  0
 10 17  2  0     0  0
 11 23  2  0     0  0
 12  6  1  0     0  0
 13  1  1  0     0  0
 14 20  2  0     0  0
 15 27  1  0     0  0
 16 15  1  0     0  0
 17 22  1  0     0  0
 18 21  1  0     0  0
 19 13  2  0     0  0
 20 44  1  0     0  0
 21  7  2  0     0  0
 22  8  2  0     0  0
 23 41  1  0     0  0
 24 12  2  0     0  0
 25  9  1  0     0  0
 26 10  1  0     0  0
 27 45  1  0     0  0
 28 16  1  0     0  0
 29 32  1  0     0  0
 30 31  1  0     0  0
 31 36  2  0     0  0
 32 35  2  0     0  0
 33 10  1  0     0  0
 34  9  1  0     0  0
 35 18  1  0     0  0
 36 17  1  0     0  0
 37  3  2  0     0  0
 38  3  2  0     0  0
 39  4  2  0     0  0
 40  4  2  0     0  0
 41 60  2  0     0  0
 42 24  1  0     0  0
 43 19  1  0     0  0
 44 46  2  0     0  0
 45 43  2  0     0  0
 46 28  1  0     0  0
 47 16  2  0     0  0
 48 15  2  0     0  0
 49 31  1  0     0  0
 50 32  1  0     0  0
 51  4  1  0     0  0
 52  3  1  0     0  0
 53 26  2  0     0  0
 54 25  2  0     0  0
 55 29  2  0     0  0
 56 30  2  0     0  0
 57 12  1  0     0  0
 58 11  1  0     0  0
 59 42  2  0     0  0
 60 46  1  0     0  0
 61 26  1  0     0  0
 62 25  1  0     0  0
 63 30  1  0     0  0
 64 29  1  0     0  0
 24 19  1  0     0  0
 59 45  1  0     0  0
 50 34  2  0     0  0
 23 20  1  0     0  0
  5  2  2  0     0  0
 49 33  2  0     0  0
M  END
>  <prID>
436

>  <IDDB>
104506

>  <pIC50_HIV_Integrase>
6.397940009

>  <Q>
-8.055386982

>  <Activity_Integrase>
Active_Integrase

NA
NA
NA
NA
$$$$

  Accelrys05311914302D 1   1.00000     0.00000     0

 52 57  0     0  0            999 V2000
    3.7875   -0.1375    0.0000 C   0  0  0  0  0  0           0  0  0
   -3.7833    0.1625    0.0000 C   0  0  0  0  0  0           0  0  0
    4.3750    0.2000    0.0000 S   0  0  3  0  0  0           0  0  0
   -4.3542   -0.1750    0.0000 S   0  0  3  0  0  0           0  0  0
   -3.7833    0.8250    0.0000 C   0  0  0  0  0  0           0  0  0
    3.7917   -0.8250    0.0000 C   0  0  0  0  0  0           0  0  0
    4.3792   -1.1583    0.0000 N   0  0  0  0  0  0           0  0  0
   -4.3667    1.1708    0.0000 N   0  0  0  0  0  0           0  0  0
    3.2042   -1.1625    0.0000 C   0  0  0  0  0  0           0  0  0
   -3.2083    1.1708    0.0000 C   0  0  0  0  0  0           0  0  0
   -3.2083   -0.1750    0.0000 C   0  0  0  0  0  0           0  0  0
    3.2042    0.1958    0.0000 C   0  0  0  0  0  0           0  0  0
    0.2750   -0.1667    0.0000 C   0  0  0  0  0  0           0  0  0
   -0.3167    0.1667    0.0000 C   0  0  0  0  0  0           0  0  0
    2.6208   -0.1500    0.0000 C   0  0  0  0  0  0           0  0  0
   -2.6333    0.1625    0.0000 C   0  0  0  0  0  0           0  0  0
    2.6208   -0.8292    0.0000 C   0  0  0  0  0  0           0  0  0
   -2.6375    0.8292    0.0000 C   0  0  0  0  0  0           0  0  0
    0.8583    0.1792    0.0000 N   0  0  0  0  0  0           0  0  0
   -0.9000   -0.1750    0.0000 N   0  0  0  0  0  0           0  0  0
    4.3792   -1.8417    0.0000 N   0  0  0  0  0  0           0  0  0
   -4.3667    1.8583    0.0000 N   0  0  0  0  0  0           0  0  0
    3.7292    0.7208    0.0000 O   0  0  0  0  0  0           0  0  0
   -3.7958   -0.8083    0.0000 O   0  0  0  0  0  0           0  0  0
   -4.9417    0.3625    0.0000 O   0  0  0  0  0  0           0  0  0
    5.0167   -0.3042    0.0000 O   0  0  0  0  0  0           0  0  0
    2.0375   -1.1750    0.0000 C   0  0  0  0  0  0           0  0  0
   -2.0667    1.1708    0.0000 C   0  0  0  0  0  0           0  0  0
    2.0333    0.1875    0.0000 C   0  0  0  0  0  0           0  0  0
   -2.0625   -0.1708    0.0000 C   0  0  0  0  0  0           0  0  0
   -1.4875    0.1667    0.0000 C   0  0  0  0  0  0           0  0  0
    1.4500   -0.1583    0.0000 C   0  0  0  0  0  0           0  0  0
    0.2792   -0.8458    0.0000 O   0  0  0  0  0  0           0  0  0
   -0.3208    0.8458    0.0000 O   0  0  0  0  0  0           0  0  0
   -4.9417   -0.7042    0.0000 O   0  0  0  0  0  0           0  0  0
    4.9375    0.6167    0.0000 O   0  0  0  0  0  0           0  0  0
    3.2083   -1.8417    0.0000 O   0  0  0  0  0  0           0  0  0
   -3.2125    1.8292    0.0000 O   0  0  0  0  0  0           0  0  0
    1.4542   -0.8292    0.0000 C   0  0  0  0  0  0           0  0  0
   -1.4875    0.8375    0.0000 C   0  0  0  0  0  0           0  0  0
    4.9750   -2.1792    0.0000 C   0  0  0  0  0  0           0  0  0
   -4.9583    2.1958    0.0000 C   0  0  0  0  0  0           0  0  0
    4.9792   -2.8583    0.0000 C   0  0  0  0  0  0           0  0  0
    5.5583   -1.8375    0.0000 C   0  0  0  0  0  0           0  0  0
   -4.9500    2.8667    0.0000 C   0  0  0  0  0  0           0  0  0
   -5.5417    1.8500    0.0000 C   0  0  0  0  0  0           0  0  0
    6.1458   -2.1667    0.0000 C   0  0  0  0  0  0           0  0  0
    5.5625   -3.1958    0.0000 C   0  0  0  0  0  0           0  0  0
   -5.5417    3.2125    0.0000 C   0  0  0  0  0  0           0  0  0
   -6.1208    2.1833    0.0000 C   0  0  0  0  0  0           0  0  0
    6.1500   -2.8500    0.0000 C   0  0  0  0  0  0           0  0  0
   -6.1208    2.8667    0.0000 C   0  0  0  0  0  0           0  0  0
  2 11  1  0     0  0
  3  1  1  0     0  0
  4  2  1  0     0  0
  5 10  1  0     0  0
  6  1  2  0     0  0
  7  6  1  0     0  0
  8  5  1  0     0  0
  9  6  1  0     0  0
 10 18  2  0     0  0
 11 16  2  0     0  0
 12  1  1  0     0  0
 13 19  1  0     0  0
 14 13  1  0     0  0
 15 12  2  0     0  0
 16 30  1  0     0  0
 17  9  2  0     0  0
 18 28  1  0     0  0
 19 32  1  0     0  0
 20 14  1  0     0  0
 21  7  2  0     0  0
 22  8  2  0     0  0
 23  3  2  0     0  0
 24  4  2  0     0  0
 25  4  2  0     0  0
 26  3  2  0     0  0
 27 17  1  0     0  0
 28 40  2  0     0  0
 29 15  1  0     0  0
 30 31  2  0     0  0
 31 20  1  0     0  0
 32 29  2  0     0  0
 33 13  2  0     0  0
 34 14  2  0     0  0
 35  4  1  0     0  0
 36  3  1  0     0  0
 37  9  1  0     0  0
 38 10  1  0     0  0
 39 27  2  0     0  0
 40 31  1  0     0  0
 41 21  1  0     0  0
 42 22  1  0     0  0
 43 41  2  0     0  0
 44 41  1  0     0  0
 45 42  2  0     0  0
 46 42  1  0     0  0
 47 44  2  0     0  0
 48 43  1  0     0  0
 49 45  1  0     0  0
 50 46  2  0     0  0
 51 47  1  0     0  0
 52 50  1  0     0  0
 17 15  1  0     0  0
 39 32  1  0     0  0
 51 48  2  0     0  0
 18 16  1  0     0  0
  5  2  2  0     0  0
 52 49  2  0     0  0
M  END
>  <prID>
437

>  <IDDB>
104507

>  <pIC50_HIV_Integrase>
6.397940009

>  <Q>
-4.348106499

>  <Activity_Integrase>
Active_Integrase

NA
NA
NA
NA
$$$$

  Accelrys05311914302D 1   1.00000     0.00000     0

 76 81  0     0  0            999 V2000
    2.3167   -0.0583    0.0000 C   0  0  0  0  0  0           0  0  0
   -2.3625    0.1208    0.0000 C   0  0  0  0  0  0           0  0  0
    2.6792    0.1500    0.0000 S   0  0  3  0  0  0           0  0  0
   -2.7042   -0.0750    0.0000 S   0  0  3  0  0  0           0  0  0
   -2.3625    0.5292    0.0000 C   0  0  0  0  0  0           0  0  0
    2.3167   -0.4750    0.0000 C   0  0  0  0  0  0           0  0  0
    2.6833   -0.6792    0.0000 N   0  0  0  0  0  0           0  0  0
   -2.7167    0.7375    0.0000 N   0  0  0  0  0  0           0  0  0
    1.9583   -0.6792    0.0000 C   0  0  0  0  0  0           0  0  0
   -2.0000    0.7375    0.0000 C   0  0  0  0  0  0           0  0  0
   -2.0000   -0.0750    0.0000 C   0  0  0  0  0  0           0  0  0
    1.9583    0.1500    0.0000 C   0  0  0  0  0  0           0  0  0
    0.1500   -0.0750    0.0000 C   0  0  0  0  0  0           0  0  0
   -0.2167    0.1333    0.0000 C   0  0  0  0  0  0           0  0  0
    1.5958   -0.0583    0.0000 C   0  0  0  0  0  0           0  0  0
   -1.6458    0.1208    0.0000 C   0  0  0  0  0  0           0  0  0
    1.5958   -0.4750    0.0000 C   0  0  0  0  0  0           0  0  0
   -1.6500    0.5333    0.0000 C   0  0  0  0  0  0           0  0  0
    4.1417   -1.9000    0.0000 C   0  0  0  0  0  0           0  0  0
   -4.1750    1.9750    0.0000 C   0  0  0  0  0  0           0  0  0
    4.5000   -1.7000    0.0000 N   0  0  0  0  0  0           0  0  0
   -4.5333    1.7625    0.0000 N   0  0  0  0  0  0           0  0  0
    0.5083    0.1375    0.0000 N   0  0  0  0  0  0           0  0  0
   -0.5792   -0.0792    0.0000 N   0  0  0  0  0  0           0  0  0
    2.6833   -1.0875    0.0000 N   0  0  0  0  0  0           0  0  0
   -2.7167    1.1500    0.0000 N   0  0  0  0  0  0           0  0  0
    4.8667   -2.3083    0.0000 C   0  0  0  0  0  0           0  0  0
   -4.8917    2.3833    0.0000 C   0  0  0  0  0  0           0  0  0
   -4.8917    1.9667    0.0000 C   0  0  3  0  0  0           0  0  0
    4.8667   -1.9000    0.0000 C   0  0  3  0  0  0           0  0  0
    2.2792    0.4625    0.0000 O   0  0  0  0  0  0           0  0  0
   -2.3625   -0.4625    0.0000 O   0  0  0  0  0  0           0  0  0
   -3.0750    0.2458    0.0000 O   0  0  0  0  0  0           0  0  0
    3.0750   -0.1583    0.0000 O   0  0  0  0  0  0           0  0  0
    1.2333   -0.6792    0.0000 C   0  0  0  0  0  0           0  0  0
   -1.3000    0.7375    0.0000 C   0  0  0  0  0  0           0  0  0
    3.7750   -1.7000    0.0000 C   0  0  0  0  0  0           0  0  0
   -3.8042    1.7667    0.0000 C   0  0  0  0  0  0           0  0  0
    1.2333    0.1417    0.0000 C   0  0  0  0  0  0           0  0  0
   -1.2917   -0.0750    0.0000 C   0  0  0  0  0  0           0  0  0
    5.9375   -1.6583    0.0000 C   0  0  0  0  0  0           0  0  0
   -5.6208    1.1667    0.0000 C   0  0  0  0  0  0           0  0  0
   -0.9417    0.1333    0.0000 C   0  0  0  0  0  0           0  0  0
    0.8750   -0.0667    0.0000 C   0  0  0  0  0  0           0  0  0
    0.1500   -0.4833    0.0000 O   0  0  0  0  0  0           0  0  0
   -0.2208    0.5417    0.0000 O   0  0  0  0  0  0           0  0  0
   -4.1750    2.3833    0.0000 O   0  0  0  0  0  0           0  0  0
    4.1417   -2.3167    0.0000 O   0  0  0  0  0  0           0  0  0
   -3.0750   -0.4000    0.0000 O   0  0  0  0  0  0           0  0  0
    3.0250    0.4000    0.0000 O   0  0  0  0  0  0           0  0  0
   -4.5333    2.5875    0.0000 O   0  0  0  0  0  0           0  0  0
    4.5042   -2.5167    0.0000 O   0  0  0  0  0  0           0  0  0
    6.3042   -1.8500    0.0000 O   0  0  0  0  0  0           0  0  0
   -5.9708    1.3875    0.0000 O   0  0  0  0  0  0           0  0  0
    5.2208   -1.6917    0.0000 C   0  0  0  0  0  0           0  0  0
   -5.2458    1.7625    0.0000 C   0  0  0  0  0  0           0  0  0
   -3.4417    1.9750    0.0000 C   0  0  0  0  0  0           0  0  0
   -3.8042    1.3583    0.0000 C   0  0  0  0  0  0           0  0  0
    3.0458   -1.2917    0.0000 C   0  0  0  0  0  0           0  0  0
    3.4125   -1.9042    0.0000 C   0  0  0  0  0  0           0  0  0
   -3.0792    1.3625    0.0000 C   0  0  0  0  0  0           0  0  0
    3.7750   -1.2833    0.0000 C   0  0  0  0  0  0           0  0  0
    1.9583   -1.0875    0.0000 O   0  0  0  0  0  0           0  0  0
   -2.0042    1.1375    0.0000 O   0  0  0  0  0  0           0  0  0
   -0.9417    0.5333    0.0000 C   0  0  0  0  0  0           0  0  0
    0.8792   -0.4750    0.0000 C   0  0  0  0  0  0           0  0  0
   -5.2500    1.3583    0.0000 C   0  0  0  0  0  0           0  0  0
    5.5833   -1.8833    0.0000 C   0  0  0  0  0  0           0  0  0
   -5.2583    2.5833    0.0000 O   0  0  0  0  0  0           0  0  0
    5.2292   -2.5167    0.0000 O   0  0  0  0  0  0           0  0  0
   -5.6375    0.7583    0.0000 O   0  0  0  0  0  0           0  0  0
    5.9292   -1.2375    0.0000 O   0  0  0  0  0  0           0  0  0
   -3.4417    1.1500    0.0000 C   0  0  0  0  0  0           0  0  0
    3.4042   -1.0833    0.0000 C   0  0  0  0  0  0           0  0  0
    3.0500   -1.7042    0.0000 C   0  0  0  0  0  0           0  0  0
   -3.0792    1.7667    0.0000 C   0  0  0  0  0  0           0  0  0
  2 11  1  0     0  0
  3  1  1  0     0  0
  4  2  1  0     0  0
  5 10  1  0     0  0
  6  1  2  0     0  0
  7  6  1  0     0  0
  8  5  1  0     0  0
  9  6  1  0     0  0
 10 18  2  0     0  0
 11 16  2  0     0  0
 12  1  1  0     0  0
 13 23  1  0     0  0
 14 13  1  0     0  0
 15 12  2  0     0  0
 16 40  1  0     0  0
 17  9  2  0     0  0
 18 36  1  0     0  0
 19 37  1  0     0  0
 20 38  1  0     0  0
 21 19  1  0     0  0
 22 20  1  0     0  0
 23 44  1  0     0  0
 24 14  1  0     0  0
 25  7  2  0     0  0
 26  8  2  0     0  0
 27 30  1  0     0  0
 28 29  1  0     0  0
 29 22  1  0     0  0
 30 21  1  0     0  0
 31  3  2  0     0  0
 32  4  2  0     0  0
 33  4  2  0     0  0
 34  3  2  0     0  0
 35 17  1  0     0  0
 36 65  2  0     0  0
 37 62  1  0     0  0
 38 58  1  0     0  0
 39 15  1  0     0  0
 40 43  2  0     0  0
 41 68  1  0     0  0
 42 67  1  0     0  0
 43 24  1  0     0  0
 44 39  2  0     0  0
 45 13  2  0     0  0
 46 14  2  0     0  0
 47 20  2  0     0  0
 48 19  2  0     0  0
 49  4  1  0     0  0
 50  3  1  0     0  0
 51 28  2  0     0  0
 52 27  2  0     0  0
 53 41  2  0     0  0
 54 42  2  0     0  0
 55 30  1  0     0  0
 56 29  1  0     0  0
 57 76  1  0     0  0
 58 73  2  0     0  0
 59 25  1  0     0  0
 60 75  1  0     0  0
 61 26  1  0     0  0
 62 74  2  0     0  0
 63  9  1  0     0  0
 64 10  1  0     0  0
 65 43  1  0     0  0
 66 35  2  0     0  0
 67 56  1  0     0  0
 68 55  1  0     0  0
 69 28  1  0     0  0
 70 27  1  0     0  0
 71 42  1  0     0  0
 72 41  1  0     0  0
 73 61  1  0     0  0
 74 59  1  0     0  0
 75 59  2  0     0  0
 76 61  2  0     0  0
 17 15  1  0     0  0
 66 44  1  0     0  0
 37 60  2  0     0  0
 18 16  1  0     0  0
  5  2  2  0     0  0
 38 57  2  0     0  0
M  END
>  <prID>
438

>  <IDDB>
104508

>  <pIC50_HIV_Integrase>
6.301029996

>  <Q>
-11.3695435

>  <Activity_Integrase>
Active_Integrase

NA
NA
NA
NA
$$$$

  Accelrys05311914302D 1   1.00000     0.00000     0

 60 65  0     0  0            999 V2000
    2.9375   -0.1083    0.0000 C   0  0  0  0  0  0           0  0  0
   -2.9417    0.1208    0.0000 C   0  0  0  0  0  0           0  0  0
    3.3917    0.1542    0.0000 S   0  0  3  0  0  0           0  0  0
   -3.3833   -0.1375    0.0000 S   0  0  3  0  0  0           0  0  0
   -2.9417    0.6417    0.0000 C   0  0  0  0  0  0           0  0  0
    2.9375   -0.6417    0.0000 C   0  0  0  0  0  0           0  0  0
    3.4000   -0.9000    0.0000 N   0  0  0  0  0  0           0  0  0
   -3.3958    0.9083    0.0000 N   0  0  0  0  0  0           0  0  0
    2.4875   -0.9042    0.0000 C   0  0  0  0  0  0           0  0  0
   -2.4917    0.9042    0.0000 C   0  0  0  0  0  0           0  0  0
   -2.4917   -0.1375    0.0000 C   0  0  0  0  0  0           0  0  0
    2.4875    0.1500    0.0000 C   0  0  0  0  0  0           0  0  0
    0.2125   -0.1292    0.0000 C   0  0  0  0  0  0           0  0  0
   -0.2458    0.1292    0.0000 C   0  0  0  0  0  0           0  0  0
    2.0375   -0.1167    0.0000 C   0  0  0  0  0  0           0  0  0
   -2.0458    0.1208    0.0000 C   0  0  0  0  0  0           0  0  0
    2.0375   -0.6458    0.0000 C   0  0  0  0  0  0           0  0  0
   -2.0458    0.6417    0.0000 C   0  0  0  0  0  0           0  0  0
    0.6667    0.1417    0.0000 N   0  0  0  0  0  0           0  0  0
   -0.7000   -0.1375    0.0000 N   0  0  0  0  0  0           0  0  0
    3.4042   -1.4292    0.0000 N   0  0  0  0  0  0           0  0  0
   -3.3958    1.4375    0.0000 N   0  0  0  0  0  0           0  0  0
    2.9000    0.5583    0.0000 O   0  0  0  0  0  0           0  0  0
   -2.9458   -0.6292    0.0000 O   0  0  0  0  0  0           0  0  0
   -3.8417    0.2833    0.0000 O   0  0  0  0  0  0           0  0  0
    3.8917   -0.2375    0.0000 O   0  0  0  0  0  0           0  0  0
    1.5792   -0.9083    0.0000 C   0  0  0  0  0  0           0  0  0
   -1.6042    0.9083    0.0000 C   0  0  0  0  0  0           0  0  0
    5.6875   -2.2083    0.0000 C   0  0  0  0  0  0           0  0  0
   -5.6792    2.2292    0.0000 C   0  0  0  0  0  0           0  0  0
    1.5792    0.1417    0.0000 C   0  0  0  0  0  0           0  0  0
   -1.6000   -0.1333    0.0000 C   0  0  0  0  0  0           0  0  0
   -5.2208    2.4917    0.0000 N   0  0  0  0  0  0           0  0  0
    5.2333   -2.4750    0.0000 N   0  0  0  0  0  0           0  0  0
   -1.1583    0.1292    0.0000 C   0  0  0  0  0  0           0  0  0
    1.1250   -0.1208    0.0000 C   0  0  0  0  0  0           0  0  0
    0.2167   -0.6583    0.0000 O   0  0  0  0  0  0           0  0  0
   -0.2542    0.6583    0.0000 O   0  0  0  0  0  0           0  0  0
   -3.8417   -0.5500    0.0000 O   0  0  0  0  0  0           0  0  0
    3.8375    0.4792    0.0000 O   0  0  0  0  0  0           0  0  0
    5.6875   -1.6792    0.0000 O   0  0  0  0  0  0           0  0  0
   -5.6792    1.7000    0.0000 O   0  0  0  0  0  0           0  0  0
   -3.8500    1.7000    0.0000 C   0  0  0  0  0  0           0  0  0
    3.8583   -1.6917    0.0000 C   0  0  0  0  0  0           0  0  0
    2.4958   -1.4333    0.0000 O   0  0  0  0  0  0           0  0  0
   -2.5000    1.4208    0.0000 O   0  0  0  0  0  0           0  0  0
   -4.7625    2.2292    0.0000 C   0  0  0  0  0  0           0  0  0
    4.7792   -2.2167    0.0000 C   0  0  0  0  0  0           0  0  0
   -1.1583    0.6458    0.0000 C   0  0  0  0  0  0           0  0  0
    1.1292   -0.6458    0.0000 C   0  0  0  0  0  0           0  0  0
    3.8583   -2.2167    0.0000 C   0  0  0  0  0  0           0  0  0
    4.3167   -1.4250    0.0000 C   0  0  0  0  0  0           0  0  0
   -3.8500    2.2292    0.0000 C   0  0  0  0  0  0           0  0  0
   -4.3042    1.4375    0.0000 C   0  0  0  0  0  0           0  0  0
    4.7708   -1.6833    0.0000 C   0  0  0  0  0  0           0  0  0
    4.3208   -2.4792    0.0000 C   0  0  0  0  0  0           0  0  0
   -4.3042    2.4917    0.0000 C   0  0  0  0  0  0           0  0  0
   -4.7625    1.7000    0.0000 C   0  0  0  0  0  0           0  0  0
   -6.1208    2.4875    0.0000 C   0  0  0  0  0  0           0  0  0
    6.1500   -2.4708    0.0000 C   0  0  0  0  0  0           0  0  0
  2 11  1  0     0  0
  3  1  1  0     0  0
  4  2  1  0     0  0
  5 10  1  0     0  0
  6  1  2  0     0  0
  7  6  1  0     0  0
  8  5  1  0     0  0
  9  6  1  0     0  0
 10 18  2  0     0  0
 11 16  2  0     0  0
 12  1  1  0     0  0
 13 19  1  0     0  0
 14 13  1  0     0  0
 15 12  2  0     0  0
 16 32  1  0     0  0
 17  9  2  0     0  0
 18 28  1  0     0  0
 19 36  1  0     0  0
 20 14  1  0     0  0
 21  7  2  0     0  0
 22  8  2  0     0  0
 23  3  2  0     0  0
 24  4  2  0     0  0
 25  4  2  0     0  0
 26  3  2  0     0  0
 27 17  1  0     0  0
 28 49  2  0     0  0
 29 34  1  0     0  0
 30 33  1  0     0  0
 31 15  1  0     0  0
 32 35  2  0     0  0
 33 47  1  0     0  0
 34 48  1  0     0  0
 35 20  1  0     0  0
 36 31  2  0     0  0
 37 13  2  0     0  0
 38 14  2  0     0  0
 39  4  1  0     0  0
 40  3  1  0     0  0
 41 29  2  0     0  0
 42 30  2  0     0  0
 43 22  1  0     0  0
 44 21  1  0     0  0
 45  9  1  0     0  0
 46 10  1  0     0  0
 47 58  1  0     0  0
 48 55  1  0     0  0
 49 35  1  0     0  0
 50 27  2  0     0  0
 51 44  2  0     0  0
 52 44  1  0     0  0
 53 43  2  0     0  0
 54 43  1  0     0  0
 55 52  2  0     0  0
 56 51  1  0     0  0
 57 53  1  0     0  0
 58 54  2  0     0  0
 59 30  1  0     0  0
 60 29  1  0     0  0
 17 15  1  0     0  0
 50 36  1  0     0  0
 48 56  2  0     0  0
 18 16  1  0     0  0
  5  2  2  0     0  0
 47 57  2  0     0  0
M  END
>  <prID>
439

>  <IDDB>
104509

>  <pIC50_HIV_Integrase>
6.15490196

>  <Q>
-6.883023773

>  <Activity_Integrase>
Active_Integrase

NA
NA
NA
NA
$$$$

  Accelrys05311914302D 1   1.00000     0.00000     0

 64 69  0     0  0            999 V2000
    3.1750   -0.1167    0.0000 C   0  0  0  0  0  0           0  0  0
   -3.1833    0.1333    0.0000 C   0  0  0  0  0  0           0  0  0
    3.6625    0.1667    0.0000 S   0  0  3  0  0  0           0  0  0
   -3.6542   -0.1458    0.0000 S   0  0  3  0  0  0           0  0  0
   -3.1833    0.6917    0.0000 C   0  0  0  0  0  0           0  0  0
    3.1792   -0.6958    0.0000 C   0  0  0  0  0  0           0  0  0
    3.6708   -0.9792    0.0000 N   0  0  0  0  0  0           0  0  0
   -3.6667    0.9833    0.0000 N   0  0  0  0  0  0           0  0  0
    2.6917   -0.9792    0.0000 C   0  0  0  0  0  0           0  0  0
   -2.6958    0.9833    0.0000 C   0  0  0  0  0  0           0  0  0
   -2.6958   -0.1458    0.0000 C   0  0  0  0  0  0           0  0  0
    2.6833    0.1625    0.0000 C   0  0  0  0  0  0           0  0  0
    0.2292   -0.1375    0.0000 C   0  0  0  0  0  0           0  0  0
   -0.2667    0.1417    0.0000 C   0  0  0  0  0  0           0  0  0
    2.2000   -0.1208    0.0000 C   0  0  0  0  0  0           0  0  0
   -2.2167    0.1333    0.0000 C   0  0  0  0  0  0           0  0  0
    2.2000   -0.7000    0.0000 C   0  0  0  0  0  0           0  0  0
   -2.2167    0.6958    0.0000 C   0  0  0  0  0  0           0  0  0
    5.1583   -2.3917    0.0000 C   0  0  0  0  0  0           0  0  0
   -5.1417    2.4042    0.0000 C   0  0  0  0  0  0           0  0  0
    4.6667   -2.6792    0.0000 C   0  0  0  0  0  0           0  0  0
   -4.6542    2.6917    0.0000 C   0  0  0  0  0  0           0  0  0
   -5.1417    1.8333    0.0000 C   0  0  0  0  0  0           0  0  0
    5.1583   -1.8167    0.0000 C   0  0  0  0  0  0           0  0  0
   -3.6667    1.5583    0.0000 N   0  0  0  0  0  0           0  0  0
    3.6792   -1.5458    0.0000 N   0  0  0  0  0  0           0  0  0
   -0.7583   -0.1458    0.0000 N   0  0  0  0  0  0           0  0  0
    0.7167    0.1500    0.0000 N   0  0  0  0  0  0           0  0  0
   -4.6542    1.5500    0.0000 C   0  0  0  0  0  0           0  0  0
    4.6583   -1.5375    0.0000 C   0  0  0  0  0  0           0  0  0
    4.1708   -2.4000    0.0000 C   0  0  0  0  0  0           0  0  0
   -4.1625    2.4042    0.0000 C   0  0  0  0  0  0           0  0  0
   -4.1625    1.8417    0.0000 C   0  0  0  0  0  0           0  0  0
    4.1708   -1.8292    0.0000 C   0  0  0  0  0  0           0  0  0
   -4.1542    0.3000    0.0000 O   0  0  0  0  0  0           0  0  0
    3.1333    0.6000    0.0000 O   0  0  0  0  0  0           0  0  0
    4.2083   -0.2583    0.0000 O   0  0  0  0  0  0           0  0  0
   -3.1833   -0.6792    0.0000 O   0  0  0  0  0  0           0  0  0
    1.7083   -0.9833    0.0000 C   0  0  0  0  0  0           0  0  0
   -1.7375    0.9833    0.0000 C   0  0  0  0  0  0           0  0  0
    1.7042    0.1583    0.0000 C   0  0  0  0  0  0           0  0  0
   -1.7292   -0.1458    0.0000 C   0  0  0  0  0  0           0  0  0
    1.2167   -0.1333    0.0000 C   0  0  0  0  0  0           0  0  0
   -1.2500    0.1417    0.0000 C   0  0  0  0  0  0           0  0  0
   -0.2750    0.7083    0.0000 O   0  0  0  0  0  0           0  0  0
    0.2333   -0.7083    0.0000 O   0  0  0  0  0  0           0  0  0
   -4.1542   -0.5958    0.0000 O   0  0  0  0  0  0           0  0  0
    4.1417    0.5167    0.0000 O   0  0  0  0  0  0           0  0  0
    2.6917   -1.5458    0.0000 O   0  0  0  0  0  0           0  0  0
   -2.6958    1.5375    0.0000 O   0  0  0  0  0  0           0  0  0
    1.2167   -0.7000    0.0000 C   0  0  0  0  0  0           0  0  0
   -1.2500    0.7000    0.0000 C   0  0  0  0  0  0           0  0  0
    5.6583   -2.6792    0.0000 O   0  0  0  0  0  0           0  0  0
   -5.6417    2.6917    0.0000 O   0  0  0  0  0  0           0  0  0
    4.6667   -3.2542    0.0000 O   0  0  0  0  0  0           0  0  0
   -4.6542    3.2625    0.0000 O   0  0  0  0  0  0           0  0  0
   -5.6417    1.5458    0.0000 O   0  0  0  0  0  0           0  0  0
    5.6458   -1.5333    0.0000 O   0  0  0  0  0  0           0  0  0
    6.1458   -2.3917    0.0000 C   0  0  0  0  0  0           0  0  0
   -6.1250    2.4042    0.0000 C   0  0  0  0  0  0           0  0  0
    6.1417   -1.8167    0.0000 C   0  0  0  0  0  0           0  0  0
   -4.1625    3.5500    0.0000 C   0  0  0  0  0  0           0  0  0
   -6.1208    1.8292    0.0000 C   0  0  0  0  0  0           0  0  0
    4.1792   -3.5375    0.0000 C   0  0  0  0  0  0           0  0  0
  2 11  1  0     0  0
  3  1  1  0     0  0
  4  2  1  0     0  0
  5 10  1  0     0  0
  6  1  2  0     0  0
  7  6  1  0     0  0
  8  5  1  0     0  0
  9  6  1  0     0  0
 10 18  2  0     0  0
 11 16  2  0     0  0
 12  1  1  0     0  0
 13 28  1  0     0  0
 14 13  1  0     0  0
 15 12  2  0     0  0
 16 42  1  0     0  0
 17  9  2  0     0  0
 18 40  1  0     0  0
 19 24  1  0     0  0
 20 23  1  0     0  0
 21 31  1  0     0  0
 22 32  1  0     0  0
 23 29  2  0     0  0
 24 30  2  0     0  0
 25  8  2  0     0  0
 26  7  2  0     0  0
 27 14  1  0     0  0
 28 43  1  0     0  0
 29 33  1  0     0  0
 30 34  1  0     0  0
 31 34  2  0     0  0
 32 33  2  0     0  0
 33 25  1  0     0  0
 34 26  1  0     0  0
 35  4  2  0     0  0
 36  3  2  0     0  0
 37  3  2  0     0  0
 38  4  2  0     0  0
 39 17  1  0     0  0
 40 52  2  0     0  0
 41 15  1  0     0  0
 42 44  2  0     0  0
 43 41  2  0     0  0
 44 27  1  0     0  0
 45 14  2  0     0  0
 46 13  2  0     0  0
 47  4  1  0     0  0
 48  3  1  0     0  0
 49  9  1  0     0  0
 50 10  1  0     0  0
 51 39  2  0     0  0
 52 44  1  0     0  0
 53 19  1  0     0  0
 54 20  1  0     0  0
 55 21  1  0     0  0
 56 22  1  0     0  0
 57 23  1  0     0  0
 58 24  1  0     0  0
 59 53  1  0     0  0
 60 54  1  0     0  0
 61 58  1  0     0  0
 62 56  1  0     0  0
 63 57  1  0     0  0
 64 55  1  0     0  0
 15 17  1  0     0  0
 43 51  1  0     0  0
 19 21  2  0     0  0
 18 16  1  0     0  0
  5  2  2  0     0  0
 20 22  2  0     0  0
M  END
>  <prID>
440

>  <IDDB>
104510

>  <pIC50_HIV_Integrase>
6.397940009

>  <Q>
-5.802874855

>  <Activity_Integrase>
Active_Integrase

NA
NA
NA
NA
$$$$

  Accelrys05311914302D 1   1.00000     0.00000     0

 62 69  0     0  0            999 V2000
    3.0500   -0.1292    0.0000 C   0  0  0  0  0  0           0  0  0
   -3.0667    0.1167    0.0000 C   0  0  0  0  0  0           0  0  0
    3.5167    0.1458    0.0000 S   0  0  3  0  0  0           0  0  0
   -3.5250   -0.1542    0.0000 S   0  0  3  0  0  0           0  0  0
   -3.0667    0.6542    0.0000 C   0  0  0  0  0  0           0  0  0
    3.0500   -0.6792    0.0000 C   0  0  0  0  0  0           0  0  0
    3.9833   -1.8125    0.0000 C   0  0  0  0  0  0           0  0  0
   -3.9792    1.8208    0.0000 C   0  0  0  0  0  0           0  0  0
    4.5000   -1.6167    0.0000 N   0  0  0  0  0  0           0  0  0
   -3.9667    2.3625    0.0000 N   0  0  0  0  0  0           0  0  0
    3.5250   -0.9542    0.0000 N   0  0  0  0  0  0           0  0  0
   -3.5417    0.9292    0.0000 N   0  0  0  0  0  0           0  0  0
    2.5792   -0.9542    0.0000 C   0  0  0  0  0  0           0  0  0
   -2.6000    0.9250    0.0000 C   0  0  0  0  0  0           0  0  0
   -4.5083    1.6625    0.0000 N   0  0  0  0  0  0           0  0  0
    4.0083   -2.3542    0.0000 N   0  0  0  0  0  0           0  0  0
    4.8375   -2.0542    0.0000 C   0  0  0  0  0  0           0  0  0
   -4.4833    2.5458    0.0000 C   0  0  0  0  0  0           0  0  0
   -2.6000   -0.1542    0.0000 C   0  0  0  0  0  0           0  0  0
    2.5792    0.1417    0.0000 C   0  0  0  0  0  0           0  0  0
   -0.2667    0.1208    0.0000 C   0  0  0  0  0  0           0  0  0
    0.2125   -0.1500    0.0000 C   0  0  0  0  0  0           0  0  0
   -4.8208    2.1125    0.0000 C   0  0  0  0  0  0           0  0  0
    4.5333   -2.5000    0.0000 C   0  0  0  0  0  0           0  0  0
   -2.1417    0.1167    0.0000 C   0  0  0  0  0  0           0  0  0
    2.1083   -0.1375    0.0000 C   0  0  0  0  0  0           0  0  0
   -2.1417    0.6625    0.0000 C   0  0  0  0  0  0           0  0  0
    2.1083   -0.6875    0.0000 C   0  0  0  0  0  0           0  0  0
   -3.5417    1.4833    0.0000 N   0  0  0  0  0  0           0  0  0
    3.5333   -1.5000    0.0000 N   0  0  0  0  0  0           0  0  0
    0.6833    0.1292    0.0000 N   0  0  0  0  0  0           0  0  0
   -0.7417   -0.1583    0.0000 N   0  0  0  0  0  0           0  0  0
    5.3833   -2.0958    0.0000 C   0  0  0  0  0  0           0  0  0
   -4.6958    3.0458    0.0000 C   0  0  0  0  0  0           0  0  0
   -5.3583    2.1833    0.0000 C   0  0  0  0  0  0           0  0  0
    4.7667   -2.9958    0.0000 C   0  0  0  0  0  0           0  0  0
    4.0417   -0.2583    0.0000 O   0  0  0  0  0  0           0  0  0
    3.0000    0.5625    0.0000 O   0  0  0  0  0  0           0  0  0
   -3.0750   -0.6708    0.0000 O   0  0  0  0  0  0           0  0  0
   -4.0083    0.2750    0.0000 O   0  0  0  0  0  0           0  0  0
    5.3167   -3.0375    0.0000 C   0  0  0  0  0  0           0  0  0
    5.6167   -2.5792    0.0000 C   0  0  0  0  0  0           0  0  0
   -5.5667    2.6833    0.0000 C   0  0  0  0  0  0           0  0  0
   -5.2375    3.1208    0.0000 C   0  0  0  0  0  0           0  0  0
   -1.6833    0.9292    0.0000 C   0  0  0  0  0  0           0  0  0
    1.6375   -0.9583    0.0000 C   0  0  0  0  0  0           0  0  0
   -1.6750   -0.1542    0.0000 C   0  0  0  0  0  0           0  0  0
    1.6333    0.1375    0.0000 C   0  0  0  0  0  0           0  0  0
    1.1583   -0.1417    0.0000 C   0  0  0  0  0  0           0  0  0
   -1.2167    0.1208    0.0000 C   0  0  0  0  0  0           0  0  0
   -0.2708    0.6708    0.0000 O   0  0  0  0  0  0           0  0  0
    0.2167   -0.7000    0.0000 O   0  0  0  0  0  0           0  0  0
    3.9833    0.4833    0.0000 O   0  0  0  0  0  0           0  0  0
   -4.0083   -0.5875    0.0000 O   0  0  0  0  0  0           0  0  0
   -2.6083    1.4625    0.0000 O   0  0  0  0  0  0           0  0  0
    2.5792   -1.5042    0.0000 O   0  0  0  0  0  0           0  0  0
   -1.2167    0.6625    0.0000 C   0  0  0  0  0  0           0  0  0
    1.1625   -0.6833    0.0000 C   0  0  0  0  0  0           0  0  0
    6.1667   -2.6167    0.0000 C   0  0  0  0  0  0           0  0  0
    5.5583   -3.5292    0.0000 C   0  0  0  0  0  0           0  0  0
   -6.1042    2.7542    0.0000 C   0  0  0  0  0  0           0  0  0
   -5.4500    3.6208    0.0000 C   0  0  0  0  0  0           0  0  0
  2 19  1  0     0  0
  3  1  1  0     0  0
  4  2  1  0     0  0
  5 14  1  0     0  0
  6  1  2  0     0  0
  7 30  1  0     0  0
  8 29  1  0     0  0
  9  7  2  0     0  0
 10  8  2  0     0  0
 11  6  1  0     0  0
 12  5  1  0     0  0
 13  6  1  0     0  0
 14 27  2  0     0  0
 15  8  1  0     0  0
 16  7  1  0     0  0
 17  9  1  0     0  0
 18 10  1  0     0  0
 19 25  2  0     0  0
 20  1  1  0     0  0
 21 22  1  0     0  0
 22 31  1  0     0  0
 23 15  1  0     0  0
 24 16  1  0     0  0
 25 47  1  0     0  0
 26 20  2  0     0  0
 27 45  1  0     0  0
 28 13  2  0     0  0
 29 12  2  0     0  0
 30 11  2  0     0  0
 31 49  1  0     0  0
 32 21  1  0     0  0
 33 17  1  0     0  0
 34 18  1  0     0  0
 35 23  1  0     0  0
 36 24  1  0     0  0
 37  3  2  0     0  0
 38  3  2  0     0  0
 39  4  2  0     0  0
 40  4  2  0     0  0
 41 36  2  0     0  0
 42 33  2  0     0  0
 43 35  2  0     0  0
 44 34  2  0     0  0
 45 57  2  0     0  0
 46 28  1  0     0  0
 47 50  2  0     0  0
 48 26  1  0     0  0
 49 48  2  0     0  0
 50 32  1  0     0  0
 51 21  2  0     0  0
 52 22  2  0     0  0
 53  3  1  0     0  0
 54  4  1  0     0  0
 55 14  1  0     0  0
 56 13  1  0     0  0
 57 50  1  0     0  0
 58 46  2  0     0  0
 59 42  1  0     0  0
 60 41  1  0     0  0
 61 43  1  0     0  0
 62 44  1  0     0  0
 26 28  1  0     0  0
 49 58  1  0     0  0
 17 24  2  0     0  0
 42 41  1  0     0  0
 27 25  1  0     0  0
  5  2  2  0     0  0
 18 23  2  0     0  0
 44 43  1  0     0  0
M  END
>  <prID>
441

>  <IDDB>
104511

>  <pIC50_HIV_Integrase>
6.522878745

>  <Q>
-7.506614716

>  <Activity_Integrase>
Active_Integrase

NA
NA
NA
NA
$$$$

  Accelrys05311914302D 1   1.00000     0.00000     0

 21 22  0     0  0            999 V2000
    0.7792    0.2542    0.0000 C   0  0  0  0  0  0           0  0  0
    1.4958    0.6625    0.0000 C   0  0  0  0  0  0           0  0  0
    2.2083    0.2500    0.0000 C   0  0  0  0  0  0           0  0  0
    2.9250    0.6625    0.0000 C   0  0  0  0  0  0           0  0  0
    0.0667    0.6708    0.0000 C   0  0  0  0  0  0           0  0  0
   -0.6500    0.2625    0.0000 C   0  0  0  0  0  0           0  0  0
   -0.6500   -0.5625    0.0000 C   0  0  0  0  0  0           0  0  0
    0.7792   -0.5708    0.0000 O   0  0  0  0  0  0           0  0  0
    2.9292    1.4833    0.0000 O   0  0  0  0  0  0           0  0  0
    2.2042   -0.5792    0.0000 O   0  0  0  0  0  0           0  0  0
    3.6375    0.2417    0.0000 O   0  0  0  0  0  0           0  0  0
   -1.3625   -0.9750    0.0000 C   0  0  0  0  0  0           0  0  0
   -1.3625    0.6667    0.0000 C   0  0  0  0  0  0           0  0  0
    0.0667    1.4958    0.0000 C   0  0  0  0  0  0           0  0  0
   -1.3625   -1.7958    0.0000 C   0  0  0  0  0  0           0  0  0
   -2.0792   -0.5583    0.0000 C   0  0  0  0  0  0           0  0  0
   -1.3625    1.4917    0.0000 C   0  0  0  0  0  0           0  0  0
   -0.6458    1.9083    0.0000 C   0  0  0  0  0  0           0  0  0
   -2.7917   -0.9708    0.0000 C   0  0  0  0  0  0           0  0  0
   -2.0750   -2.2083    0.0000 C   0  0  0  0  0  0           0  0  0
   -2.7917   -1.7958    0.0000 C   0  0  0  0  0  0           0  0  0
  2  1  1  0     0  0
  3  2  1  0     0  0
  4  3  1  0     0  0
  5  1  1  0     0  0
  6  5  2  0     0  0
  7  6  1  0     0  0
  8  1  2  0     0  0
  9  4  2  0     0  0
 10  3  2  0     0  0
 11  4  1  0     0  0
 12  7  1  0     0  0
 13  6  1  0     0  0
 14  5  1  0     0  0
 15 12  1  0     0  0
 16 12  2  0     0  0
 17 18  1  0     0  0
 18 14  2  0     0  0
 19 16  1  0     0  0
 20 15  2  0     0  0
 21 20  1  0     0  0
 17 13  2  0     0  0
 21 19  2  0     0  0
M  END
>  <prID>
442

>  <IDDB>
105218

>  <pIC50_HIV_Integrase>
5.2006594505

>  <Q>
-0.175679862

>  <Activity_Integrase>
Inactive_Integrase

NA
NA
NA
NA
$$$$

  Accelrys05311914302D 1   1.00000     0.00000     0

 20 21  0     0  0            999 V2000
   -0.6625    0.3208    0.0000 N   0  0  3  0  0  0           0  0  0
    0.0042    0.8000    0.0000 C   0  0  0  0  0  0           0  0  0
    0.7167    0.3833    0.0000 C   0  0  0  0  0  0           0  0  0
    1.4375    0.7917    0.0000 C   0  0  0  0  0  0           0  0  0
    2.1458    0.3792    0.0000 C   0  0  0  0  0  0           0  0  0
    2.8625    0.7833    0.0000 C   0  0  0  0  0  0           0  0  0
   -1.3333    0.8000    0.0000 C   0  0  0  0  0  0           0  0  0
   -0.6625   -0.5083    0.0000 C   0  0  0  0  0  0           0  0  0
   -0.2500    1.5833    0.0000 C   0  0  0  0  0  0           0  0  0
   -1.0750    1.5833    0.0000 C   0  0  0  0  0  0           0  0  0
    0.7167   -0.4417    0.0000 O   0  0  0  0  0  0           0  0  0
    2.8667    1.6125    0.0000 O   0  0  0  0  0  0           0  0  0
    2.1458   -0.4500    0.0000 O   0  0  0  0  0  0           0  0  0
    3.5792    0.3708    0.0000 O   0  0  0  0  0  0           0  0  0
   -1.3792   -0.9167    0.0000 C   0  0  0  0  0  0           0  0  0
   -1.3750   -1.7375    0.0000 C   0  0  0  0  0  0           0  0  0
   -2.0917   -0.5000    0.0000 C   0  0  0  0  0  0           0  0  0
   -2.8042   -0.9125    0.0000 C   0  0  0  0  0  0           0  0  0
   -2.0833   -2.1542    0.0000 C   0  0  0  0  0  0           0  0  0
   -2.8042   -1.7375    0.0000 C   0  0  0  0  0  0           0  0  0
  2  1  1  0     0  0
  3  2  1  0     0  0
  4  3  1  0     0  0
  5  4  1  0     0  0
  6  5  1  0     0  0
  7  1  1  0     0  0
  8  1  1  0     0  0
  9  2  2  0     0  0
 10  7  2  0     0  0
 11  3  2  0     0  0
 12  6  2  0     0  0
 13  5  2  0     0  0
 14  6  1  0     0  0
 15  8  1  0     0  0
 16 15  1  0     0  0
 17 15  2  0     0  0
 18 17  1  0     0  0
 19 16  2  0     0  0
 20 19  1  0     0  0
 10  9  1  0     0  0
 20 18  2  0     0  0
M  END
>  <prID>
443

>  <IDDB>
105219

>  <pIC50_HIV_Integrase>
6.6782736615

>  <Q>
-0.02768578

>  <Activity_Integrase>
Active_Integrase

NA
NA
NA
NA
$$$$

  Accelrys05311914302D 1   1.00000     0.00000     0

 20 21  0     0  0            999 V2000
    0.0042    0.8000    0.0000 C   0  0  0  0  0  0           0  0  0
   -0.6625    0.3208    0.0000 C   0  0  0  0  0  0           0  0  0
    0.7167    0.3833    0.0000 C   0  0  0  0  0  0           0  0  0
    1.4375    0.7917    0.0000 C   0  0  0  0  0  0           0  0  0
    2.1458    0.3792    0.0000 C   0  0  0  0  0  0           0  0  0
    2.8625    0.7833    0.0000 C   0  0  0  0  0  0           0  0  0
   -1.3333    0.8000    0.0000 S   0  0  0  0  0  0           0  0  0
   -0.2500    1.5833    0.0000 C   0  0  0  0  0  0           0  0  0
   -1.0750    1.5833    0.0000 C   0  0  0  0  0  0           0  0  0
   -0.6625   -0.5083    0.0000 C   0  0  0  0  0  0           0  0  0
    0.7167   -0.4417    0.0000 O   0  0  0  0  0  0           0  0  0
    2.8667    1.6125    0.0000 O   0  0  0  0  0  0           0  0  0
    2.1458   -0.4500    0.0000 O   0  0  0  0  0  0           0  0  0
    3.5792    0.3708    0.0000 O   0  0  0  0  0  0           0  0  0
   -1.3792   -0.9167    0.0000 C   0  0  0  0  0  0           0  0  0
   -1.3750   -1.7375    0.0000 C   0  0  0  0  0  0           0  0  0
   -2.0917   -0.5000    0.0000 C   0  0  0  0  0  0           0  0  0
   -2.8042   -0.9125    0.0000 C   0  0  0  0  0  0           0  0  0
   -2.0833   -2.1542    0.0000 C   0  0  0  0  0  0           0  0  0
   -2.8042   -1.7375    0.0000 C   0  0  0  0  0  0           0  0  0
  2  1  2  0     0  0
  3  1  1  0     0  0
  4  3  1  0     0  0
  5  4  1  0     0  0
  6  5  1  0     0  0
  7  2  1  0     0  0
  8  1  1  0     0  0
  9  8  2  0     0  0
 10  2  1  0     0  0
 11  3  2  0     0  0
 12  6  2  0     0  0
 13  5  2  0     0  0
 14  6  1  0     0  0
 15 10  1  0     0  0
 16 15  1  0     0  0
 17 15  2  0     0  0
 18 17  1  0     0  0
 19 16  2  0     0  0
 20 19  1  0     0  0
  9  7  1  0     0  0
 20 18  2  0     0  0
M  END
>  <prID>
444

>  <IDDB>
105220

>  <pIC50_HIV_Integrase>
6.744727495

>  <Q>
0.459585758

>  <Activity_Integrase>
Active_Integrase

NA
NA
NA
NA
$$$$

  Accelrys05311914332D 1   1.00000     0.00000     0

 21 22  0     0  0            999 V2000
    2.6958   -0.5000    0.0000 C   0  0  0  0  0  0           0  0  0
    1.9792   -0.0792    0.0000 C   0  0  0  0  0  0           0  0  0
    1.2583   -0.4917    0.0000 C   0  0  0  0  0  0           0  0  0
    3.4167   -0.0792    0.0000 C   0  0  0  0  0  0           0  0  0
    0.5417   -0.0708    0.0000 C   0  0  0  0  0  0           0  0  0
   -0.1792   -0.4833    0.0000 C   0  0  0  0  0  0           0  0  0
    3.4167    0.7458    0.0000 O   0  0  0  0  0  0           0  0  0
    2.6917   -1.3250    0.0000 O   0  0  0  0  0  0           0  0  0
    1.2542   -1.3167    0.0000 O   0  0  0  0  0  0           0  0  0
   -0.8958   -0.0750    0.0000 C   0  0  0  0  0  0           0  0  0
   -1.6042   -0.4875    0.0000 C   0  0  0  0  0  0           0  0  0
    4.1292   -0.5000    0.0000 O   0  0  0  0  0  0           0  0  0
   -2.3208   -0.0750    0.0000 C   0  0  0  0  0  0           0  0  0
    0.5417    0.7583    0.0000 C   0  0  0  0  0  0           0  0  0
   -0.1750    1.1750    0.0000 C   0  0  0  0  0  0           0  0  0
   -0.8958    0.7542    0.0000 C   0  0  0  0  0  0           0  0  0
   -3.0333   -0.4875    0.0000 C   0  0  0  0  0  0           0  0  0
   -2.3208    0.7500    0.0000 C   0  0  0  0  0  0           0  0  0
   -3.7458   -0.0792    0.0000 C   0  0  0  0  0  0           0  0  0
   -3.0375    1.1625    0.0000 C   0  0  0  0  0  0           0  0  0
   -3.7500    0.7458    0.0000 C   0  0  0  0  0  0           0  0  0
  2  1  1  0     0  0
  3  2  1  0     0  0
  4  1  1  0     0  0
  5  3  1  0     0  0
  6  5  2  0     0  0
  7  4  2  0     0  0
  8  1  2  0     0  0
  9  3  2  0     0  0
 10  6  1  0     0  0
 11 10  1  0     0  0
 12  4  1  0     0  0
 13 11  1  0     0  0
 14  5  1  0     0  0
 15 14  2  0     0  0
 16 15  1  0     0  0
 17 13  1  0     0  0
 18 13  2  0     0  0
 19 17  2  0     0  0
 20 18  1  0     0  0
 21 19  1  0     0  0
 16 10  2  0     0  0
 21 20  2  0     0  0
M  END
>  <prID>
445

>  <IDDB>
105221

>  <pIC50_HIV_Integrase>
7.198970004

>  <Q>
-0.133225448

>  <Activity_Integrase>
Active_Integrase

NA
NA
NA
NA
$$$$

  Accelrys05311914302D 1   1.00000     0.00000     0

 20 21  0     0  0            999 V2000
    0.4833   -0.0375    0.0000 C   0  0  0  0  0  0           0  0  0
   -0.1833   -0.5167    0.0000 C   0  0  0  0  0  0           0  0  0
    1.2000   -0.4500    0.0000 C   0  0  0  0  0  0           0  0  0
    0.2292    0.7542    0.0000 C   0  0  0  0  0  0           0  0  0
   -0.5958    0.7542    0.0000 S   0  0  0  0  0  0           0  0  0
   -0.8500   -0.0375    0.0000 C   0  0  0  0  0  0           0  0  0
    1.9167   -0.0375    0.0000 C   0  0  0  0  0  0           0  0  0
    2.6292   -0.4583    0.0000 C   0  0  0  0  0  0           0  0  0
    3.3417   -0.0458    0.0000 C   0  0  0  0  0  0           0  0  0
    3.3458    0.7833    0.0000 O   0  0  0  0  0  0           0  0  0
    1.1958   -1.2750    0.0000 O   0  0  0  0  0  0           0  0  0
    2.6250   -1.2792    0.0000 O   0  0  0  0  0  0           0  0  0
   -1.5833   -0.4167    0.0000 C   0  0  0  0  0  0           0  0  0
    4.0583   -0.4583    0.0000 O   0  0  0  0  0  0           0  0  0
   -2.2833    0.0208    0.0000 C   0  0  0  0  0  0           0  0  0
   -2.2458    0.8458    0.0000 C   0  0  0  0  0  0           0  0  0
   -3.0042   -0.3625    0.0000 C   0  0  0  0  0  0           0  0  0
   -2.9417    1.2833    0.0000 C   0  0  0  0  0  0           0  0  0
   -3.7042    0.0708    0.0000 C   0  0  0  0  0  0           0  0  0
   -3.6750    0.9000    0.0000 C   0  0  0  0  0  0           0  0  0
  2  1  1  0     0  0
  3  1  1  0     0  0
  4  1  2  0     0  0
  5  4  1  0     0  0
  6  2  2  0     0  0
  7  3  1  0     0  0
  8  7  1  0     0  0
  9  8  1  0     0  0
 10  9  2  0     0  0
 11  3  2  0     0  0
 12  8  2  0     0  0
 13  6  1  0     0  0
 14  9  1  0     0  0
 15 13  1  0     0  0
 16 15  2  0     0  0
 17 15  1  0     0  0
 18 16  1  0     0  0
 19 17  2  0     0  0
 20 19  1  0     0  0
  5  6  1  0     0  0
 20 18  2  0     0  0
M  END
>  <prID>
446

>  <IDDB>
105222

>  <pIC50_HIV_Integrase>
7

>  <Q>
0.501379514

>  <Activity_Integrase>
Active_Integrase

NA
NA
NA
NA
$$$$

  Accelrys05311914302D 1   1.00000     0.00000     0

 20 21  0     0  0            999 V2000
    0.4833   -0.0375    0.0000 C   0  0  0  0  0  0           0  0  0
   -0.8500   -0.0375    0.0000 N   0  0  3  0  0  0           0  0  0
   -0.1833   -0.5167    0.0000 C   0  0  0  0  0  0           0  0  0
    1.2000   -0.4500    0.0000 C   0  0  0  0  0  0           0  0  0
    1.9167   -0.0375    0.0000 C   0  0  0  0  0  0           0  0  0
    2.6292   -0.4583    0.0000 C   0  0  0  0  0  0           0  0  0
    0.2292    0.7542    0.0000 C   0  0  0  0  0  0           0  0  0
    3.3417   -0.0458    0.0000 C   0  0  0  0  0  0           0  0  0
   -0.5958    0.7542    0.0000 C   0  0  0  0  0  0           0  0  0
    3.3458    0.7833    0.0000 O   0  0  0  0  0  0           0  0  0
    1.1958   -1.2750    0.0000 O   0  0  0  0  0  0           0  0  0
    2.6250   -1.2792    0.0000 O   0  0  0  0  0  0           0  0  0
   -1.5833   -0.4167    0.0000 C   0  0  0  0  0  0           0  0  0
    4.0583   -0.4583    0.0000 O   0  0  0  0  0  0           0  0  0
   -2.2833    0.0208    0.0000 C   0  0  0  0  0  0           0  0  0
   -2.2458    0.8458    0.0000 C   0  0  0  0  0  0           0  0  0
   -3.0042   -0.3625    0.0000 C   0  0  0  0  0  0           0  0  0
   -2.9417    1.2833    0.0000 C   0  0  0  0  0  0           0  0  0
   -3.7042    0.0708    0.0000 C   0  0  0  0  0  0           0  0  0
   -3.6750    0.9000    0.0000 C   0  0  0  0  0  0           0  0  0
  2  3  1  0     0  0
  3  1  2  0     0  0
  4  1  1  0     0  0
  5  4  1  0     0  0
  6  5  1  0     0  0
  7  1  1  0     0  0
  8  6  1  0     0  0
  9  7  2  0     0  0
 10  8  2  0     0  0
 11  4  2  0     0  0
 12  6  2  0     0  0
 13  2  1  0     0  0
 14  8  1  0     0  0
 15 13  1  0     0  0
 16 15  2  0     0  0
 17 15  1  0     0  0
 18 16  1  0     0  0
 19 17  2  0     0  0
 20 19  1  0     0  0
  9  2  1  0     0  0
 20 18  2  0     0  0
M  END
>  <prID>
447

>  <IDDB>
105223

>  <pIC50_HIV_Integrase>
6.301029996

>  <Q>
0.272505978

>  <Activity_Integrase>
Active_Integrase

NA
NA
NA
NA
$$$$

  Accelrys05311914302D 1   1.00000     0.00000     0

 20 21  0     0  0            999 V2000
    0.4833   -0.0375    0.0000 C   0  0  0  0  0  0           0  0  0
   -0.1833   -0.5167    0.0000 S   0  0  0  0  0  0           0  0  0
    1.2000   -0.4500    0.0000 C   0  0  0  0  0  0           0  0  0
   -0.8500   -0.0375    0.0000 C   0  0  0  0  0  0           0  0  0
    1.9167   -0.0375    0.0000 C   0  0  0  0  0  0           0  0  0
    2.6292   -0.4583    0.0000 C   0  0  0  0  0  0           0  0  0
    0.2292    0.7542    0.0000 C   0  0  0  0  0  0           0  0  0
    3.3417   -0.0458    0.0000 C   0  0  0  0  0  0           0  0  0
   -0.5958    0.7542    0.0000 C   0  0  0  0  0  0           0  0  0
    3.3458    0.7833    0.0000 O   0  0  0  0  0  0           0  0  0
    1.1958   -1.2750    0.0000 O   0  0  0  0  0  0           0  0  0
    2.6250   -1.2792    0.0000 O   0  0  0  0  0  0           0  0  0
   -1.5833   -0.4167    0.0000 C   0  0  0  0  0  0           0  0  0
    4.0583   -0.4583    0.0000 O   0  0  0  0  0  0           0  0  0
   -2.2833    0.0208    0.0000 C   0  0  0  0  0  0           0  0  0
   -2.2458    0.8458    0.0000 C   0  0  0  0  0  0           0  0  0
   -3.0042   -0.3625    0.0000 C   0  0  0  0  0  0           0  0  0
   -2.9417    1.2833    0.0000 C   0  0  0  0  0  0           0  0  0
   -3.7042    0.0708    0.0000 C   0  0  0  0  0  0           0  0  0
   -3.6750    0.9000    0.0000 C   0  0  0  0  0  0           0  0  0
  2  1  1  0     0  0
  3  1  1  0     0  0
  4  2  1  0     0  0
  5  3  1  0     0  0
  6  5  1  0     0  0
  7  1  2  0     0  0
  8  6  1  0     0  0
  9  7  1  0     0  0
 10  8  2  0     0  0
 11  3  2  0     0  0
 12  6  2  0     0  0
 13  4  1  0     0  0
 14  8  1  0     0  0
 15 13  1  0     0  0
 16 15  2  0     0  0
 17 15  1  0     0  0
 18 16  1  0     0  0
 19 17  2  0     0  0
 20 19  1  0     0  0
  9  4  2  0     0  0
 20 18  2  0     0  0
M  END
>  <prID>
448

>  <IDDB>
105224

>  <pIC50_HIV_Integrase>
6.261439373

>  <Q>
0.591485488

>  <Activity_Integrase>
Active_Integrase

NA
NA
NA
NA
$$$$

  Accelrys05311914332D 1   1.00000     0.00000     0

 22 23  0     0  0            999 V2000
    2.9000   -0.5500    0.0000 C   0  0  0  0  0  0           0  0  0
    2.1792   -0.1292    0.0000 C   0  0  0  0  0  0           0  0  0
    1.4583   -0.5417    0.0000 C   0  0  0  0  0  0           0  0  0
    3.6167   -0.1375    0.0000 C   0  0  0  0  0  0           0  0  0
    0.7458   -0.1250    0.0000 C   0  0  0  0  0  0           0  0  0
    0.0250   -0.5375    0.0000 C   0  0  0  0  0  0           0  0  0
    3.6167    0.6958    0.0000 O   0  0  0  0  0  0           0  0  0
    2.8958   -1.3792    0.0000 O   0  0  0  0  0  0           0  0  0
    1.4583   -1.3750    0.0000 O   0  0  0  0  0  0           0  0  0
   -0.6917   -0.1250    0.0000 C   0  0  0  0  0  0           0  0  0
   -1.4042   -0.5375    0.0000 C   0  0  0  0  0  0           0  0  0
    4.3333   -0.5542    0.0000 O   0  0  0  0  0  0           0  0  0
   -2.1208   -0.1292    0.0000 C   0  0  0  0  0  0           0  0  0
   -3.5458    0.6958    0.0000 C   0  0  0  0  0  0           0  0  0
   -4.2625    1.1042    0.0000 Cl  0  0  0  0  0  0           0  0  0
   -3.5417   -0.1333    0.0000 C   0  0  0  0  0  0           0  0  0
   -2.8333    1.1083    0.0000 C   0  0  0  0  0  0           0  0  0
   -2.8292   -0.5417    0.0000 C   0  0  0  0  0  0           0  0  0
   -2.1208    0.7000    0.0000 C   0  0  0  0  0  0           0  0  0
    0.7458    0.7042    0.0000 C   0  0  0  0  0  0           0  0  0
    0.0292    1.1208    0.0000 C   0  0  0  0  0  0           0  0  0
   -0.6917    0.7000    0.0000 C   0  0  0  0  0  0           0  0  0
  2  1  1  0     0  0
  3  2  1  0     0  0
  4  1  1  0     0  0
  5  3  1  0     0  0
  6  5  2  0     0  0
  7  4  2  0     0  0
  8  1  2  0     0  0
  9  3  2  0     0  0
 10  6  1  0     0  0
 11 10  1  0     0  0
 12  4  1  0     0  0
 13 11  1  0     0  0
 14 16  1  0     0  0
 15 14  1  0     0  0
 16 18  2  0     0  0
 17 19  1  0     0  0
 18 13  1  0     0  0
 19 13  2  0     0  0
 20  5  1  0     0  0
 21 20  2  0     0  0
 22 21  1  0     0  0
 22 10  2  0     0  0
 14 17  2  0     0  0
M  END
>  <prID>
449

>  <IDDB>
105227

>  <pIC50_HIV_Integrase>
6.5624693685

>  <Q>
-1.081209197

>  <Activity_Integrase>
Active_Integrase

NA
NA
NA
NA
$$$$

  Accelrys05311914302D 1   1.00000     0.00000     0

 22 23  0     0  0            999 V2000
    2.8333   -0.5875    0.0000 C   0  0  0  0  0  0           0  0  0
    2.1167   -0.1667    0.0000 C   0  0  0  0  0  0           0  0  0
    1.3958   -0.5792    0.0000 C   0  0  0  0  0  0           0  0  0
    3.5542   -0.1750    0.0000 C   0  0  0  0  0  0           0  0  0
    0.6792   -0.1583    0.0000 C   0  0  0  0  0  0           0  0  0
   -0.0417   -0.5750    0.0000 C   0  0  0  0  0  0           0  0  0
    3.5542    0.6583    0.0000 O   0  0  0  0  0  0           0  0  0
    2.8292   -1.4167    0.0000 O   0  0  0  0  0  0           0  0  0
    1.3917   -1.4125    0.0000 O   0  0  0  0  0  0           0  0  0
   -0.7542   -0.1625    0.0000 C   0  0  0  0  0  0           0  0  0
   -2.1833   -0.1625    0.0000 C   0  0  0  0  0  0           0  0  0
   -1.4667   -0.5792    0.0000 C   0  0  0  0  0  0           0  0  0
   -2.1833    0.6625    0.0000 C   0  0  0  0  0  0           0  0  0
    4.2708   -0.5917    0.0000 O   0  0  0  0  0  0           0  0  0
   -2.9000    1.0708    0.0000 C   0  0  0  0  0  0           0  0  0
   -2.9000    1.8958    0.0000 F   0  0  0  0  0  0           0  0  0
    0.6833    0.6667    0.0000 C   0  0  0  0  0  0           0  0  0
   -0.0375    1.0833    0.0000 C   0  0  0  0  0  0           0  0  0
   -3.6083   -0.1708    0.0000 C   0  0  0  0  0  0           0  0  0
   -0.7583    0.6625    0.0000 C   0  0  0  0  0  0           0  0  0
   -2.8958   -0.5792    0.0000 C   0  0  0  0  0  0           0  0  0
   -3.6125    0.6583    0.0000 C   0  0  0  0  0  0           0  0  0
  2  1  1  0     0  0
  3  2  1  0     0  0
  4  1  1  0     0  0
  5  3  1  0     0  0
  6  5  2  0     0  0
  7  4  2  0     0  0
  8  1  2  0     0  0
  9  3  2  0     0  0
 10  6  1  0     0  0
 11 12  1  0     0  0
 12 10  1  0     0  0
 13 11  2  0     0  0
 14  4  1  0     0  0
 15 13  1  0     0  0
 16 15  1  0     0  0
 17  5  1  0     0  0
 18 17  2  0     0  0
 19 21  2  0     0  0
 20 18  1  0     0  0
 21 11  1  0     0  0
 22 19  1  0     0  0
 20 10  2  0     0  0
 22 15  2  0     0  0
M  END
>  <prID>
450

>  <IDDB>
105229

>  <pIC50_HIV_Integrase>
6.712984366

>  <Q>
-2.633751032

>  <Activity_Integrase>
Active_Integrase

NA
NA
NA
NA
$$$$

  Accelrys05311914302D 1   1.00000     0.00000     0

 23 24  0     0  0            999 V2000
    2.8333   -0.6333    0.0000 C   0  0  0  0  0  0           0  0  0
    2.1167   -0.2167    0.0000 C   0  0  0  0  0  0           0  0  0
    1.4000   -0.6292    0.0000 C   0  0  0  0  0  0           0  0  0
   -0.7542   -0.2083    0.0000 C   0  0  0  0  0  0           0  0  0
    3.5542   -0.2167    0.0000 C   0  0  0  0  0  0           0  0  0
    0.6833   -0.2083    0.0000 C   0  0  0  0  0  0           0  0  0
   -0.0375   -0.6208    0.0000 C   0  0  0  0  0  0           0  0  0
   -0.7583    0.6208    0.0000 C   0  0  0  0  0  0           0  0  0
   -1.4667   -0.6208    0.0000 C   0  0  0  0  0  0           0  0  0
    3.5583    0.6083    0.0000 O   0  0  0  0  0  0           0  0  0
    2.8292   -1.4625    0.0000 O   0  0  0  0  0  0           0  0  0
    1.3958   -1.4583    0.0000 O   0  0  0  0  0  0           0  0  0
    0.6833    0.6208    0.0000 C   0  0  0  0  0  0           0  0  0
   -0.0333    1.0375    0.0000 C   0  0  0  0  0  0           0  0  0
    4.2708   -0.6375    0.0000 O   0  0  0  0  0  0           0  0  0
   -2.1833   -0.2125    0.0000 C   0  0  0  0  0  0           0  0  0
   -1.4708    1.0292    0.0000 O   0  0  0  0  0  0           0  0  0
   -2.8917   -0.6250    0.0000 C   0  0  0  0  0  0           0  0  0
   -2.1833    0.6125    0.0000 C   0  0  0  0  0  0           0  0  0
   -1.4750    1.8542    0.0000 C   0  0  0  0  0  0           0  0  0
   -3.6042   -0.2167    0.0000 C   0  0  0  0  0  0           0  0  0
   -2.8958    1.0250    0.0000 C   0  0  0  0  0  0           0  0  0
   -3.6125    0.6125    0.0000 C   0  0  0  0  0  0           0  0  0
  2  1  1  0     0  0
  3  2  1  0     0  0
  4  7  1  0     0  0
  5  1  1  0     0  0
  6  3  1  0     0  0
  7  6  2  0     0  0
  8 14  1  0     0  0
  9  4  1  0     0  0
 10  5  2  0     0  0
 11  1  2  0     0  0
 12  3  2  0     0  0
 13  6  1  0     0  0
 14 13  2  0     0  0
 15  5  1  0     0  0
 16  9  1  0     0  0
 17  8  1  0     0  0
 18 16  1  0     0  0
 19 16  2  0     0  0
 20 17  1  0     0  0
 21 18  2  0     0  0
 22 19  1  0     0  0
 23 21  1  0     0  0
  8  4  2  0     0  0
 23 22  2  0     0  0
M  END
>  <prID>
451

>  <IDDB>
105231

>  <pIC50_HIV_Integrase>
6.7614393725

>  <Q>
-0.390126056

>  <Activity_Integrase>
Active_Integrase

NA
NA
NA
NA
$$$$

  Accelrys05311914302D 1   1.00000     0.00000     0

 23 24  0     0  0            999 V2000
    1.2375   -0.6833    0.0000 C   0  0  0  0  0  0           0  0  0
    2.6792   -0.6875    0.0000 C   0  0  0  0  0  0           0  0  0
    1.9583   -0.2667    0.0000 C   0  0  0  0  0  0           0  0  0
    0.5250   -0.2625    0.0000 C   0  0  0  0  0  0           0  0  0
    3.4000   -0.2750    0.0000 C   0  0  0  0  0  0           0  0  0
   -0.9083   -0.2625    0.0000 C   0  0  0  0  0  0           0  0  0
   -0.1958   -0.6792    0.0000 C   0  0  0  0  0  0           0  0  0
    0.5292    0.5625    0.0000 C   0  0  0  0  0  0           0  0  0
    3.4000    0.5542    0.0000 O   0  0  0  0  0  0           0  0  0
    2.6750   -1.5167    0.0000 O   0  0  0  0  0  0           0  0  0
    1.2375   -1.5125    0.0000 O   0  0  0  0  0  0           0  0  0
   -0.1917    0.9833    0.0000 C   0  0  0  0  0  0           0  0  0
   -0.9125    0.5625    0.0000 C   0  0  0  0  0  0           0  0  0
   -1.6208   -0.6792    0.0000 C   0  0  0  0  0  0           0  0  0
    4.1167   -0.6958    0.0000 O   0  0  0  0  0  0           0  0  0
   -2.3417   -0.2667    0.0000 C   0  0  0  0  0  0           0  0  0
   -0.1917    1.8083    0.0000 O   0  0  0  0  0  0           0  0  0
   -2.3417    0.5625    0.0000 C   0  0  0  0  0  0           0  0  0
   -3.0458   -0.6792    0.0000 C   0  0  0  0  0  0           0  0  0
    0.5208    2.2208    0.0000 C   0  0  0  0  0  0           0  0  0
   -3.0542    0.9708    0.0000 C   0  0  0  0  0  0           0  0  0
   -3.7625   -0.2750    0.0000 C   0  0  0  0  0  0           0  0  0
   -3.7667    0.5583    0.0000 C   0  0  0  0  0  0           0  0  0
  2  3  1  0     0  0
  3  1  1  0     0  0
  4  1  1  0     0  0
  5  2  1  0     0  0
  6  7  1  0     0  0
  7  4  2  0     0  0
  8  4  1  0     0  0
  9  5  2  0     0  0
 10  2  2  0     0  0
 11  1  2  0     0  0
 12  8  2  0     0  0
 13 12  1  0     0  0
 14  6  1  0     0  0
 15  5  1  0     0  0
 16 14  1  0     0  0
 17 12  1  0     0  0
 18 16  2  0     0  0
 19 16  1  0     0  0
 20 17  1  0     0  0
 21 18  1  0     0  0
 22 19  2  0     0  0
 23 22  1  0     0  0
 13  6  2  0     0  0
 23 21  2  0     0  0
M  END
>  <prID>
452

>  <IDDB>
105232

>  <pIC50_HIV_Integrase>
6.853871964

>  <Q>
-0.38947183

>  <Activity_Integrase>
Active_Integrase

NA
NA
NA
NA
$$$$

  Accelrys05311914302D 1   1.00000     0.00000     0

 25 26  0     0  0            999 V2000
    0.3375   -0.3917    0.0000 C   0  0  0  0  0  0           0  0  0
    1.0542   -0.8083    0.0000 C   0  0  0  0  0  0           0  0  0
    0.3417    0.4417    0.0000 C   0  0  0  0  0  0           0  0  0
    1.7750   -0.3958    0.0000 C   0  0  0  0  0  0           0  0  0
    2.4917   -0.8167    0.0000 C   0  0  0  0  0  0           0  0  0
    3.2125   -0.4000    0.0000 C   0  0  0  0  0  0           0  0  0
    1.0583    0.8500    0.0000 O   0  0  0  0  0  0           0  0  0
   -0.3833   -0.8000    0.0000 C   0  0  0  0  0  0           0  0  0
    1.0500   -1.6375    0.0000 O   0  0  0  0  0  0           0  0  0
    3.2167    0.4292    0.0000 O   0  0  0  0  0  0           0  0  0
    2.4875   -1.6417    0.0000 O   0  0  0  0  0  0           0  0  0
   -1.0958   -0.3917    0.0000 C   0  0  0  0  0  0           0  0  0
   -0.3792    0.8583    0.0000 C   0  0  0  0  0  0           0  0  0
   -1.8083   -0.8042    0.0000 C   0  0  0  0  0  0           0  0  0
    3.9292   -0.8167    0.0000 O   0  0  0  0  0  0           0  0  0
   -1.1000    0.4375    0.0000 C   0  0  0  0  0  0           0  0  0
   -2.5250   -0.3958    0.0000 C   0  0  0  0  0  0           0  0  0
    1.0583    1.6750    0.0000 C   0  0  3  0  0  0           0  0  0
   -2.5250    0.4333    0.0000 C   0  0  0  0  0  0           0  0  0
   -3.2333   -0.8083    0.0000 C   0  0  0  0  0  0           0  0  0
    0.3458    2.0875    0.0000 C   0  0  0  0  0  0           0  0  0
    1.7750    2.0833    0.0000 C   0  0  0  0  0  0           0  0  0
   -3.2417    0.8417    0.0000 C   0  0  0  0  0  0           0  0  0
   -3.9500   -0.4000    0.0000 C   0  0  0  0  0  0           0  0  0
   -3.9542    0.4292    0.0000 C   0  0  0  0  0  0           0  0  0
  2  1  1  0     0  0
  3  1  1  0     0  0
  4  2  1  0     0  0
  5  4  1  0     0  0
  6  5  1  0     0  0
  7  3  1  0     0  0
  8  1  2  0     0  0
  9  2  2  0     0  0
 10  6  2  0     0  0
 11  5  2  0     0  0
 12  8  1  0     0  0
 13  3  2  0     0  0
 14 12  1  0     0  0
 15  6  1  0     0  0
 16 12  2  0     0  0
 17 14  1  0     0  0
 18  7  1  0     0  0
 19 17  2  0     0  0
 20 17  1  0     0  0
 21 18  1  0     0  0
 22 18  1  0     0  0
 23 19  1  0     0  0
 24 20  2  0     0  0
 25 24  1  0     0  0
 16 13  1  0     0  0
 25 23  2  0     0  0
M  END
>  <prID>
453

>  <IDDB>
105235

>  <pIC50_HIV_Integrase>
7.920818754

>  <Q>
-1.133444845

>  <Activity_Integrase>
Active_Integrase

NA
NA
NA
NA
$$$$

  Accelrys05311914302D 1   1.00000     0.00000     0

 18 19  0     0  0            999 V2000
    6.3161   -4.5438    0.0000 C   0  0  0  0  0  0           0  0  0
    6.3185   -3.7188    0.0000 C   0  0  0  0  0  0           0  0  0
    4.8945   -3.7146    0.0000 C   0  0  0  0  0  0           0  0  0
    4.8920   -4.5396    0.0000 C   0  0  0  0  0  0           0  0  0
    5.6070   -4.9583    0.0000 N   0  0  0  0  0  0           0  0  0
    3.4652   -3.7166    0.0000 C   0  0  0  0  0  0           0  0  0
    3.4641   -4.5440    0.0000 C   0  0  0  0  0  0           0  0  0
    4.1789   -4.9569    0.0000 C   0  0  0  0  0  0           0  0  0
    4.1771   -3.3039    0.0000 C   0  0  0  0  0  0           0  0  0
    2.7458   -3.3000    0.0000 Cl  0  0  0  0  0  0           0  0  0
    7.0324   -3.3042    0.0000 C   0  0  0  0  0  0           0  0  0
    7.7449   -3.7167    0.0000 C   0  0  0  0  0  0           0  0  0
    8.4574   -3.3042    0.0000 C   0  0  0  0  0  0           0  0  0
    9.1699   -3.7167    0.0000 C   0  0  0  0  0  0           0  0  0
    9.8824   -3.3042    0.0000 O   0  0  0  0  0  0           0  0  0
    7.0250   -2.4792    0.0000 O   0  0  0  0  0  0           0  0  0
    8.4500   -2.4792    0.0000 O   0  0  0  0  0  0           0  0  0
    9.1625   -4.5417    0.0000 O   0  0  0  0  0  0           0  0  0
  3  9  2  0     0  0
  9  6  1  0     0  0
  5  1  1  0     0  0
  6 10  1  0     0  0
  2  3  1  0     0  0
  2 11  1  0     0  0
  1  2  2  0     0  0
 11 12  1  0     0  0
 12 13  2  0     0  0
  6  7  2  0     0  0
 13 14  1  0     0  0
  3  4  1  0     0  0
 14 15  1  0     0  0
  7  8  1  0     0  0
 11 16  2  0     0  0
  8  4  2  0     0  0
 13 17  1  0     0  0
  4  5  1  0     0  0
 14 18  2  0     0  0
M  END
>  <prID>
454

>  <IDDB>
106467

>  <pIC50_HIV_Integrase>
6.397940009

>  <Q>
-2.17215055

>  <Activity_Integrase>
Active_Integrase

NA
NA
NA
NA
$$$$

  Accelrys05311914302D 1   1.00000     0.00000     0

 27 29  0     0  0            999 V2000
   -0.4292   -0.1125    0.0000 N   0  0  3  0  0  0           0  0  0
   -0.4375   -0.9375    0.0000 S   0  0  3  0  0  0           0  0  0
    0.2583    1.0833    0.0000 C   0  0  0  0  0  0           0  0  0
    0.2542    0.2875    0.0000 C   0  0  0  0  0  0           0  0  0
   -1.1208    1.0875    0.0000 C   0  0  0  0  0  0           0  0  0
   -1.1208    0.2917    0.0000 C   0  0  0  0  0  0           0  0  0
    0.9417    1.4833    0.0000 C   0  0  0  0  0  0           0  0  0
    1.6333    1.0875    0.0000 C   0  0  0  0  0  0           0  0  0
    2.3208    1.4875    0.0000 C   0  0  0  0  0  0           0  0  0
    3.0125    1.0917    0.0000 C   0  0  0  0  0  0           0  0  0
   -1.2625   -0.9375    0.0000 O   0  0  0  0  0  0           0  0  0
    0.3875   -0.9375    0.0000 O   0  0  0  0  0  0           0  0  0
   -0.4417   -1.7583    0.0000 C   0  0  0  0  0  0           0  0  0
   -1.8083   -0.1083    0.0000 C   0  0  0  0  0  0           0  0  0
   -1.8083    1.4833    0.0000 C   0  0  0  0  0  0           0  0  0
    0.9375    2.2833    0.0000 O   0  0  0  0  0  0           0  0  0
    3.0042    0.3000    0.0000 O   0  0  0  0  0  0           0  0  0
   -2.5000    1.0833    0.0000 C   0  0  0  0  0  0           0  0  0
    2.3167    2.2833    0.0000 O   0  0  0  0  0  0           0  0  0
   -2.5000    0.2875    0.0000 C   0  0  0  0  0  0           0  0  0
    3.7000    1.4917    0.0000 O   0  0  0  0  0  0           0  0  0
   -3.1958    1.4875    0.0000 Cl  0  0  0  0  0  0           0  0  0
   -1.1542   -2.1750    0.0000 C   0  0  0  0  0  0           0  0  0
    0.2750   -2.1708    0.0000 C   0  0  0  0  0  0           0  0  0
   -1.1542   -3.0000    0.0000 C   0  0  0  0  0  0           0  0  0
    0.2792   -3.0000    0.0000 C   0  0  0  0  0  0           0  0  0
   -0.4417   -3.4167    0.0000 C   0  0  0  0  0  0           0  0  0
  2  1  1  0     0  0
  3  4  2  0     0  0
  4  1  1  0     0  0
  5  6  2  0     0  0
  6  1  1  0     0  0
  7  3  1  0     0  0
  8  7  1  0     0  0
  9  8  2  0     0  0
 10  9  1  0     0  0
 11  2  2  0     0  0
 12  2  2  0     0  0
 13  2  1  0     0  0
 14  6  1  0     0  0
 15  5  1  0     0  0
 16  7  2  0     0  0
 17 10  2  0     0  0
 18 20  1  0     0  0
 19  9  1  0     0  0
 20 14  2  0     0  0
 21 10  1  0     0  0
 22 18  1  0     0  0
 23 13  1  0     0  0
 24 13  2  0     0  0
 25 23  2  0     0  0
 26 24  1  0     0  0
 27 26  2  0     0  0
  3  5  1  0     0  0
 18 15  2  0     0  0
 27 25  1  0     0  0
M  END
>  <prID>
455

>  <IDDB>
106468

>  <pIC50_HIV_Integrase>
7.744727495

>  <Q>
-1.296278679

>  <Activity_Integrase>
Active_Integrase

NA
NA
NA
NA
$$$$

  Accelrys05311914302D 1   1.00000     0.00000     0

 20 21  0     0  0            999 V2000
    4.6870  -10.0268    0.0000 C   0  0  0  0  0  0           0  0  0
    4.6915   -9.1994    0.0000 C   0  0  0  0  0  0           0  0  0
    5.4091   -8.7914    0.0000 C   0  0  0  0  0  0           0  0  0
    6.1227   -9.2096    0.0000 C   0  0  0  0  0  0           0  0  0
    6.1142  -10.0401    0.0000 C   0  0  0  0  0  0           0  0  0
    5.3960  -10.4444    0.0000 C   0  0  0  0  0  0           0  0  0
    2.5509  -11.2795    0.0000 N   0  0  0  0  0  0           0  0  0
   -1.7264  -10.4583    0.0000 O   0  0  0  0  0  0           0  0  0
   -1.0139  -10.0458    0.0000 C   0  0  0  0  0  0           0  0  0
   -0.3014  -10.4541    0.0000 C   0  0  0  0  0  0           0  0  0
    0.4111  -10.0416    0.0000 C   0  0  0  0  0  0           0  0  0
    1.1236  -10.4500    0.0000 C   0  0  0  0  0  0           0  0  0
    1.1224  -11.2773    0.0000 N   0  0  0  0  0  0           0  0  0
    1.8372  -11.6902    0.0000 C   0  0  0  0  0  0           0  0  0
    2.5508  -10.4463    0.0000 C   0  0  0  0  0  0           0  0  0
    1.8354  -10.0372    0.0000 C   0  0  0  0  0  0           0  0  0
   -0.3083  -11.2750    0.0000 O   0  0  0  0  0  0           0  0  0
   -1.0208   -9.2167    0.0000 O   0  0  0  0  0  0           0  0  0
    3.2625  -10.0292    0.0000 C   0  0  0  0  0  0           0  0  0
    3.9750  -10.4417    0.0000 C   0  0  0  0  0  0           0  0  0
 10 11  2  0     0  0
  5  6  2  0     0  0
 11 12  1  0     0  0
  6  1  1  0     0  0
 12 13  2  0     0  0
  1  2  2  0     0  0
 13 14  1  0     0  0
 14  7  2  0     0  0
  3  4  2  0     0  0
  7 15  1  0     0  0
 15 16  2  0     0  0
 16 12  1  0     0  0
  8  9  1  0     0  0
 10 17  1  0     0  0
  4  5  1  0     0  0
  9 18  2  0     0  0
  9 10  1  0     0  0
 15 19  1  0     0  0
  2  3  1  0     0  0
 19 20  1  0     0  0
 20  1  1  0     0  0
M  END
>  <prID>
456

>  <IDDB>
106479

>  <pIC50_HIV_Integrase>
7.431798276

>  <Q>
-1.146839034

>  <Activity_Integrase>
Active_Integrase

NA
NA
NA
NA
$$$$

  Accelrys05311914302D 1   1.00000     0.00000     0

 20 21  0     0  0            999 V2000
   -0.7514   -0.9375    0.0000 C   0  0  0  0  0  0           0  0  0
   -0.7526   -1.7648    0.0000 C   0  0  0  0  0  0           0  0  0
   -0.0378   -2.1777    0.0000 C   0  0  0  0  0  0           0  0  0
    0.6787   -1.7644    0.0000 C   0  0  0  0  0  0           0  0  0
    0.6758   -0.9338    0.0000 C   0  0  0  0  0  0           0  0  0
   -0.0396   -0.5247    0.0000 C   0  0  0  0  0  0           0  0  0
    1.3875   -0.5167    0.0000 C   0  0  0  0  0  0           0  0  0
    2.1000   -0.9292    0.0000 N   0  0  0  0  0  0           0  0  0
    2.9250   -0.9292    0.0000 N   0  0  0  0  0  0           0  0  0
    3.6375   -0.5125    0.0000 C   0  0  0  0  0  0           0  0  0
    4.3500   -0.9250    0.0000 C   0  0  0  0  0  0           0  0  0
    4.3462   -1.7494    0.0000 C   0  0  0  0  0  0           0  0  0
    5.0579   -2.1618    0.0000 C   0  0  0  0  0  0           0  0  0
    5.7724   -1.7509    0.0000 C   0  0  0  0  0  0           0  0  0
    5.7707   -0.9234    0.0000 C   0  0  0  0  0  0           0  0  0
    5.0585   -0.5147    0.0000 C   0  0  0  0  0  0           0  0  0
    1.3875   -2.1750    0.0000 S   0  0  0  0  0  0           0  0  0
    3.6292   -2.1542    0.0000 S   0  0  0  0  0  0           0  0  0
    3.6333    0.3125    0.0000 O   0  0  0  0  0  0           0  0  0
    1.3833    0.3083    0.0000 O   0  0  0  0  0  0           0  0  0
  9 10  1  0     0  0
  2  3  1  0     0  0
 10 11  1  0     0  0
  5  6  2  0     0  0
 11 12  2  0     0  0
  6  1  1  0     0  0
 12 13  1  0     0  0
  1  2  2  0     0  0
 13 14  2  0     0  0
  5  7  1  0     0  0
 14 15  1  0     0  0
  3  4  2  0     0  0
 15 16  2  0     0  0
 16 11  1  0     0  0
  7  8  1  0     0  0
  4 17  1  0     0  0
 12 18  1  0     0  0
  8  9  1  0     0  0
 10 19  2  0     0  0
  4  5  1  0     0  0
  7 20  2  0     0  0
M  END
>  <prID>
457

>  <IDDB>
107006

>  <pIC50_HIV_Integrase>
4.920818754

>  <Q>
2.813675251

>  <Activity_Integrase>
Inactive_Integrase

NA
NA
NA
NA
$$$$

  Accelrys05311914302D 1   1.00000     0.00000     0

 40 43  0     0  0            999 V2000
   -1.8250    1.6250    0.0000 C   0  0  0  0  0  0           0  0  0
   -1.8125   -1.6750    0.0000 C   0  0  0  0  0  0           0  0  0
    1.7375    1.6792    0.0000 C   0  0  0  0  0  0           0  0  0
    1.9000   -1.6167    0.0000 C   0  0  0  0  0  0           0  0  0
    1.0292    2.0875    0.0000 C   0  0  0  0  0  0           0  0  0
   -1.0958   -2.0792    0.0000 C   0  0  0  0  0  0           0  0  0
    1.2000   -2.0458    0.0000 C   0  0  0  0  0  0           0  0  0
   -1.1125    2.0417    0.0000 C   0  0  0  0  0  0           0  0  0
   -0.3833   -1.6625    0.0000 N   0  0  0  0  0  0           0  0  0
    0.4708   -1.6542    0.0000 N   0  0  0  0  0  0           0  0  0
   -0.3958    1.6292    0.0000 N   0  0  0  0  0  0           0  0  0
    0.3417    1.6250    0.0000 N   0  0  0  0  0  0           0  0  0
   -1.1042   -0.4417    0.0000 S   0  0  0  0  0  0           0  0  0
   -1.1042    0.3833    0.0000 S   0  0  0  0  0  0           0  0  0
   -1.8208    0.7958    0.0000 C   0  0  0  0  0  0           0  0  0
   -1.8208   -0.8542    0.0000 C   0  0  0  0  0  0           0  0  0
    1.7375    0.8583    0.0000 C   0  0  0  0  0  0           0  0  0
    1.8708   -0.7958    0.0000 C   0  0  0  0  0  0           0  0  0
   -1.1167    2.8667    0.0000 O   0  0  0  0  0  0           0  0  0
   -1.0917   -2.9083    0.0000 O   0  0  0  0  0  0           0  0  0
    1.2167   -2.8708    0.0000 O   0  0  0  0  0  0           0  0  0
    1.0250    2.9167    0.0000 O   0  0  0  0  0  0           0  0  0
    1.0167    0.4417    0.0000 S   0  0  0  0  0  0           0  0  0
    1.1458   -0.4042    0.0000 S   0  0  0  0  0  0           0  0  0
   -2.5208   -2.0917    0.0000 C   0  0  0  0  0  0           0  0  0
   -2.5417    2.0375    0.0000 C   0  0  0  0  0  0           0  0  0
    2.6208   -2.0083    0.0000 C   0  0  0  0  0  0           0  0  0
    2.4458    2.0917    0.0000 C   0  0  0  0  0  0           0  0  0
   -2.5417    0.3833    0.0000 C   0  0  0  0  0  0           0  0  0
   -2.5292   -0.4375    0.0000 C   0  0  0  0  0  0           0  0  0
    2.5708   -0.3583    0.0000 C   0  0  0  0  0  0           0  0  0
    2.4458    0.4417    0.0000 C   0  0  0  0  0  0           0  0  0
    3.1625    1.6833    0.0000 C   0  0  0  0  0  0           0  0  0
   -3.2500    1.6208    0.0000 C   0  0  0  0  0  0           0  0  0
   -3.2417   -1.6792    0.0000 C   0  0  0  0  0  0           0  0  0
    3.3250   -1.5792    0.0000 C   0  0  0  0  0  0           0  0  0
    3.1625    0.8542    0.0000 C   0  0  0  0  0  0           0  0  0
   -3.2417   -0.8542    0.0000 C   0  0  0  0  0  0           0  0  0
   -3.2542    0.7958    0.0000 C   0  0  0  0  0  0           0  0  0
    3.3000   -0.7542    0.0000 C   0  0  0  0  0  0           0  0  0
  2 16  1  0     0  0
  3  5  1  0     0  0
  4  7  1  0     0  0
  5 12  1  0     0  0
  6  2  1  0     0  0
  7 10  1  0     0  0
  8  1  1  0     0  0
  9  6  1  0     0  0
 10  9  1  0     0  0
 11  8  1  0     0  0
 12 11  1  0     0  0
 13 14  1  0     0  0
 14 15  1  0     0  0
 15  1  1  0     0  0
 16 13  1  0     0  0
 17  3  1  0     0  0
 18  4  1  0     0  0
 19  8  2  0     0  0
 20  6  2  0     0  0
 21  7  2  0     0  0
 22  5  2  0     0  0
 23 17  1  0     0  0
 24 18  1  0     0  0
 25  2  2  0     0  0
 26  1  2  0     0  0
 27  4  2  0     0  0
 28  3  2  0     0  0
 29 15  2  0     0  0
 30 16  2  0     0  0
 31 18  2  0     0  0
 32 17  2  0     0  0
 33 28  1  0     0  0
 34 26  1  0     0  0
 35 38  2  0     0  0
 36 27  1  0     0  0
 37 33  2  0     0  0
 38 30  1  0     0  0
 39 34  2  0     0  0
 40 36  2  0     0  0
 39 29  1  0     0  0
 35 25  1  0     0  0
 37 32  1  0     0  0
 40 31  1  0     0  0
M  END
>  <prID>
458

>  <IDDB>
107007

>  <pIC50_HIV_Integrase>
5.0228787455

>  <Q>
4.171056863

>  <Activity_Integrase>
Inactive_Integrase

NA
NA
NA
NA
$$$$

  Accelrys05311914302D 1   1.00000     0.00000     0

 40 44  0     0  0            999 V2000
   -0.3958    1.6333    0.0000 N   0  0  0  0  0  0           0  0  0
    0.3417    1.6250    0.0000 N   0  0  0  0  0  0           0  0  0
   -0.3833   -1.6625    0.0000 N   0  0  0  0  0  0           0  0  0
    0.4750   -1.6542    0.0000 N   0  0  0  0  0  0           0  0  0
   -1.0958   -2.0792    0.0000 C   0  0  0  0  0  0           0  0  0
   -1.1083    2.0417    0.0000 C   0  0  0  0  0  0           0  0  0
    1.0292    2.0917    0.0000 C   0  0  0  0  0  0           0  0  0
    1.2000   -2.0458    0.0000 C   0  0  0  0  0  0           0  0  0
   -1.8125   -1.6750    0.0000 C   0  0  0  0  0  0           0  0  0
    1.7375    1.6792    0.0000 C   0  0  0  0  0  0           0  0  0
   -1.8208    1.6250    0.0000 C   0  0  0  0  0  0           0  0  0
    1.9000   -1.6167    0.0000 C   0  0  0  0  0  0           0  0  0
   -1.1042    0.3833    0.0000 S   0  0  0  0  0  0           0  0  0
    1.0625   -0.4667    0.0000 S   0  0  0  0  0  0           0  0  0
   -1.1000   -0.4375    0.0000 S   0  0  0  0  0  0           0  0  0
    1.0208    0.4458    0.0000 S   0  0  0  0  0  0           0  0  0
   -1.8208    0.7958    0.0000 C   0  0  0  0  0  0           0  0  0
   -1.8167   -0.8542    0.0000 C   0  0  0  0  0  0           0  0  0
    1.8750   -0.7917    0.0000 C   0  0  0  0  0  0           0  0  0
    1.7375    0.8583    0.0000 C   0  0  0  0  0  0           0  0  0
    1.0292    2.9167    0.0000 O   0  0  0  0  0  0           0  0  0
   -1.1125    2.8667    0.0000 O   0  0  0  0  0  0           0  0  0
   -1.0875   -2.9042    0.0000 O   0  0  0  0  0  0           0  0  0
    1.2208   -2.8708    0.0000 O   0  0  0  0  0  0           0  0  0
   -2.5208   -2.0875    0.0000 C   0  0  0  0  0  0           0  0  0
   -2.5375    2.0375    0.0000 C   0  0  0  0  0  0           0  0  0
    2.4500    2.0958    0.0000 C   0  0  0  0  0  0           0  0  0
    2.6208   -2.0083    0.0000 C   0  0  0  0  0  0           0  0  0
   -2.5375    0.3833    0.0000 C   0  0  0  0  0  0           0  0  0
    2.4500    0.4417    0.0000 C   0  0  0  0  0  0           0  0  0
    2.5750   -0.3583    0.0000 C   0  0  0  0  0  0           0  0  0
   -2.5292   -0.4375    0.0000 C   0  0  0  0  0  0           0  0  0
    3.1625    1.6833    0.0000 C   0  0  0  0  0  0           0  0  0
   -3.2500    1.6208    0.0000 C   0  0  0  0  0  0           0  0  0
   -3.2417   -1.6792    0.0000 C   0  0  0  0  0  0           0  0  0
    3.3250   -1.5792    0.0000 C   0  0  0  0  0  0           0  0  0
   -3.2417   -0.8500    0.0000 C   0  0  0  0  0  0           0  0  0
    3.1667    0.8583    0.0000 C   0  0  0  0  0  0           0  0  0
    3.3042   -0.7500    0.0000 C   0  0  0  0  0  0           0  0  0
   -3.2500    0.7958    0.0000 C   0  0  0  0  0  0           0  0  0
  2  1  1  0     0  0
  3  5  1  0     0  0
  4  8  1  0     0  0
  5  9  1  0     0  0
  6  1  1  0     0  0
  7  2  1  0     0  0
  8 12  1  0     0  0
  9 18  1  0     0  0
 10  7  1  0     0  0
 11  6  1  0     0  0
 12 19  1  0     0  0
 13 17  1  0     0  0
 14 16  1  0     0  0
 15 13  1  0     0  0
 16 20  1  0     0  0
 17 11  1  0     0  0
 18 15  1  0     0  0
 19 14  1  0     0  0
 20 10  1  0     0  0
 21  7  2  0     0  0
 22  6  2  0     0  0
 23  5  2  0     0  0
 24  8  2  0     0  0
 25  9  2  0     0  0
 26 11  2  0     0  0
 27 10  2  0     0  0
 28 12  2  0     0  0
 29 17  2  0     0  0
 30 20  2  0     0  0
 31 19  2  0     0  0
 32 18  2  0     0  0
 33 27  1  0     0  0
 34 26  1  0     0  0
 35 37  2  0     0  0
 36 28  1  0     0  0
 37 32  1  0     0  0
 38 33  2  0     0  0
 39 31  1  0     0  0
 40 34  2  0     0  0
 40 29  1  0     0  0
 38 30  1  0     0  0
 36 39  2  0     0  0
 35 25  1  0     0  0
  4  3  1  0     0  0
M  END
>  <prID>
459

>  <IDDB>
107008

>  <pIC50_HIV_Integrase>
5.142667504

>  <Q>
2.714763225

>  <Activity_Integrase>
Inactive_Integrase

NA
NA
NA
NA
$$$$

  Accelrys05311914302D 1   1.00000     0.00000     0

 45 46  0     0  0            999 V2000
    0.0875   -0.4042    0.0000 C   0  0  0  0  0  0           0  0  0
    0.0875    0.1875    0.0000 C   0  0  0  0  0  0           0  0  0
   -0.4250   -0.7000    0.0000 C   0  0  0  0  0  0           0  0  0
    0.6000   -0.6958    0.0000 C   0  0  0  0  0  0           0  0  0
   -0.4250   -1.2875    0.0000 C   0  0  0  0  0  0           0  0  0
   -0.4250    0.4833    0.0000 O   0  0  0  0  0  0           0  0  0
    0.6042   -1.2875    0.0000 C   0  0  0  0  0  0           0  0  0
    0.6000    0.4833    0.0000 O   0  0  0  0  0  0           0  0  0
    4.1917   -1.5500    0.0000 C   0  0  0  0  0  0           0  0  0
    0.0875   -1.5875    0.0000 C   0  0  0  0  0  0           0  0  0
   -5.5417    0.4833    0.0000 C   0  0  0  0  0  0           0  0  0
   -5.5417    1.0750    0.0000 C   0  0  0  0  0  0           0  0  0
   -5.0292    0.1833    0.0000 C   0  0  0  0  0  0           0  0  0
    4.2000   -2.1375    0.0000 O   0  0  0  0  0  0           0  0  0
    4.7000   -1.2500    0.0000 O   0  0  0  0  0  0           0  0  0
   -4.5167    1.0792    0.0000 C   0  0  0  0  0  0           0  0  0
   -0.9417   -0.4000    0.0000 O   0  0  0  0  0  0           0  0  0
   -5.0292    1.3708    0.0000 C   0  0  0  0  0  0           0  0  0
   -4.5167    0.4833    0.0000 C   0  0  0  0  0  0           0  0  0
    0.0875   -2.1792    0.0000 O   0  0  0  0  0  0           0  0  0
   -5.0292   -0.4083    0.0000 O   0  0  0  0  0  0           0  0  0
   -6.0500    1.3708    0.0000 O   0  0  0  0  0  0           0  0  0
    1.1125   -0.4000    0.0000 C   0  0  0  0  0  0           0  0  0
   -0.4250    1.0792    0.0000 C   0  0  3  0  0  0           0  0  0
    4.6958   -0.6583    0.0000 C   0  0  3  0  0  0           0  0  0
    3.6792   -1.2583    0.0000 C   0  0  0  0  0  0           0  0  0
   -4.0042    1.3750    0.0000 C   0  0  0  0  0  0           0  0  0
    1.6250   -0.6875    0.0000 C   0  0  0  0  0  0           0  0  0
    0.0875    1.3750    0.0000 C   0  0  0  0  0  0           0  0  0
   -0.9375    1.3750    0.0000 C   0  0  0  0  0  0           0  0  0
    5.2042   -0.3583    0.0000 C   0  0  0  0  0  0           0  0  0
    4.1792   -0.3708    0.0000 C   0  0  0  0  0  0           0  0  0
   -3.4917    1.0792    0.0000 C   0  0  0  0  0  0           0  0  0
    5.7167   -0.6542    0.0000 C   0  0  0  0  0  0           0  0  0
    0.6000    1.0792    0.0000 C   0  0  0  0  0  0           0  0  0
   -1.4458    1.0792    0.0000 C   0  0  0  0  0  0           0  0  0
    3.6708   -0.6708    0.0000 C   0  0  0  0  0  0           0  0  0
    2.6458   -0.6792    0.0000 C   0  0  0  0  0  0           0  0  0
   -2.9833    1.3750    0.0000 C   0  0  0  0  0  0           0  0  0
    3.1583   -0.3792    0.0000 C   0  0  0  0  0  0           0  0  0
   -1.9583    1.3750    0.0000 C   0  0  0  0  0  0           0  0  0
    2.1333   -0.3875    0.0000 C   0  0  0  0  0  0           0  0  0
   -2.4667    1.0792    0.0000 C   0  0  0  0  0  0           0  0  0
    1.1125    1.3750    0.0000 C   0  0  0  0  0  0           0  0  0
    6.2208   -0.3583    0.0000 C   0  0  0  0  0  0           0  0  0
  2  1  1  0     0  0
  3  1  2  0     0  0
  4  1  1  0     0  0
  5  3  1  0     0  0
  6  2  1  0     0  0
  7  4  2  0     0  0
  8  2  2  0     0  0
  9 15  1  0     0  0
 10  5  2  0     0  0
 11 12  2  0     0  0
 12 18  1  0     0  0
 13 19  2  0     0  0
 14  9  2  0     0  0
 15 25  1  0     0  0
 16 27  1  0     0  0
 17  3  1  0     0  0
 18 16  2  0     0  0
 19 16  1  0     0  0
 20 10  1  0     0  0
 21 13  1  0     0  0
 22 12  1  0     0  0
 23  4  1  0     0  0
 24  6  1  0     0  0
 25 32  1  0     0  0
 26  9  1  0     0  0
 27 33  1  0     0  0
 28 23  1  0     0  0
 29 24  1  0     0  0
 30 24  1  0     0  0
 31 25  1  0     0  0
 32 37  1  0     0  0
 33 39  1  0     0  0
 34 31  1  0     0  0
 35 29  1  0     0  0
 36 30  1  0     0  0
 37 40  1  0     0  0
 38 42  1  0     0  0
 39 43  1  0     0  0
 40 38  1  0     0  0
 41 36  1  0     0  0
 42 28  1  0     0  0
 43 41  1  0     0  0
 44 35  1  0     0  0
 45 34  1  0     0  0
 10  7  1  0     0  0
 11 13  1  0     0  0
M  END
>  <prID>
460

>  <IDDB>
107991

>  <pIC50_HIV_Integrase>
4.501744164

>  <Q>
-8.576417773

>  <Activity_Integrase>
Inactive_Integrase

NA
NA
NA
NA
$$$$

  Accelrys05311914302D 1   1.00000     0.00000     0

 42 43  0     0  0            999 V2000
    0.3792   -0.5208    0.0000 C   0  0  0  0  0  0           0  0  0
    0.3792    0.0708    0.0000 C   0  0  0  0  0  0           0  0  0
   -0.1375   -0.8167    0.0000 C   0  0  0  0  0  0           0  0  0
    0.8875   -0.8167    0.0000 C   0  0  0  0  0  0           0  0  0
   -0.1375   -1.4083    0.0000 C   0  0  0  0  0  0           0  0  0
   -0.1375    0.3667    0.0000 O   0  0  0  0  0  0           0  0  0
    0.8917   -1.4042    0.0000 C   0  0  0  0  0  0           0  0  0
    0.8917    0.3667    0.0000 O   0  0  0  0  0  0           0  0  0
    0.3792   -1.7042    0.0000 C   0  0  0  0  0  0           0  0  0
   -5.2583    0.3625    0.0000 C   0  0  0  0  0  0           0  0  0
   -5.2542    0.9583    0.0000 C   0  0  0  0  0  0           0  0  0
   -4.7417    0.0667    0.0000 C   0  0  0  0  0  0           0  0  0
   -4.2292    0.9625    0.0000 C   0  0  0  0  0  0           0  0  0
   -0.6500   -0.5167    0.0000 O   0  0  0  0  0  0           0  0  0
   -4.7417    1.2542    0.0000 C   0  0  0  0  0  0           0  0  0
   -4.2250    0.3625    0.0000 C   0  0  0  0  0  0           0  0  0
    0.3792   -2.3000    0.0000 O   0  0  0  0  0  0           0  0  0
   -4.7417   -0.5250    0.0000 O   0  0  0  0  0  0           0  0  0
   -5.7625    1.2542    0.0000 O   0  0  0  0  0  0           0  0  0
    1.4000   -0.5167    0.0000 C   0  0  0  0  0  0           0  0  0
   -0.1375    0.9625    0.0000 C   0  0  3  0  0  0           0  0  0
    4.9875   -1.3667    0.0000 O   0  0  0  0  0  0           0  0  0
   -3.7167    1.2542    0.0000 C   0  0  0  0  0  0           0  0  0
    4.9833   -0.7792    0.0000 C   0  0  3  0  0  0           0  0  0
    1.9167   -0.8042    0.0000 C   0  0  0  0  0  0           0  0  0
    0.3750    1.2542    0.0000 C   0  0  0  0  0  0           0  0  0
   -0.6500    1.2542    0.0000 C   0  0  0  0  0  0           0  0  0
    5.4917   -0.4792    0.0000 C   0  0  0  0  0  0           0  0  0
    4.4667   -0.4875    0.0000 C   0  0  0  0  0  0           0  0  0
   -3.2042    0.9625    0.0000 C   0  0  0  0  0  0           0  0  0
    0.8875    0.9625    0.0000 C   0  0  0  0  0  0           0  0  0
    6.0042   -0.7708    0.0000 C   0  0  0  0  0  0           0  0  0
    3.9583   -0.7875    0.0000 C   0  0  0  0  0  0           0  0  0
   -1.1625    0.9625    0.0000 C   0  0  0  0  0  0           0  0  0
    2.4167   -0.5042    0.0000 C   0  0  0  0  0  0           0  0  0
   -2.1833    0.9625    0.0000 C   0  0  0  0  0  0           0  0  0
    2.9375   -0.8000    0.0000 C   0  0  0  0  0  0           0  0  0
   -2.6958    1.2542    0.0000 C   0  0  0  0  0  0           0  0  0
    3.4417   -0.5000    0.0000 C   0  0  0  0  0  0           0  0  0
   -1.6708    1.2542    0.0000 C   0  0  0  0  0  0           0  0  0
    6.5125   -0.4750    0.0000 C   0  0  0  0  0  0           0  0  0
    1.4000    1.2542    0.0000 C   0  0  0  0  0  0           0  0  0
  2  1  1  0     0  0
  3  1  2  0     0  0
  4  1  1  0     0  0
  5  3  1  0     0  0
  6  2  1  0     0  0
  7  4  2  0     0  0
  8  2  2  0     0  0
  9  5  2  0     0  0
 10 11  2  0     0  0
 11 15  1  0     0  0
 12 16  2  0     0  0
 13 23  1  0     0  0
 14  3  1  0     0  0
 15 13  2  0     0  0
 16 13  1  0     0  0
 17  9  1  0     0  0
 18 12  1  0     0  0
 19 11  1  0     0  0
 20  4  1  0     0  0
 21  6  1  0     0  0
 22 24  1  0     0  0
 23 30  1  0     0  0
 24 29  1  0     0  0
 25 20  1  0     0  0
 26 21  1  0     0  0
 27 21  1  0     0  0
 28 24  1  0     0  0
 29 33  1  0     0  0
 30 38  1  0     0  0
 31 26  1  0     0  0
 32 28  1  0     0  0
 33 39  1  0     0  0
 34 27  1  0     0  0
 35 25  1  0     0  0
 36 40  1  0     0  0
 37 35  1  0     0  0
 38 36  1  0     0  0
 39 37  1  0     0  0
 40 34  1  0     0  0
 41 32  1  0     0  0
 42 31  1  0     0  0
  9  7  1  0     0  0
 10 12  1  0     0  0
M  END
>  <prID>
461

>  <IDDB>
107992

>  <pIC50_HIV_Integrase>
4.769551079

>  <Q>
-8.561202512

>  <Activity_Integrase>
Inactive_Integrase

NA
NA
NA
NA
$$$$

  Accelrys05311914302D 1   1.00000     0.00000     0

 41 42  0     0  0            999 V2000
    0.5000   -0.5542    0.0000 C   0  0  0  0  0  0           0  0  0
    0.5000    0.0375    0.0000 C   0  0  0  0  0  0           0  0  0
   -0.0167   -0.8500    0.0000 C   0  0  0  0  0  0           0  0  0
    1.0125   -0.8458    0.0000 C   0  0  0  0  0  0           0  0  0
   -0.0167   -1.4375    0.0000 C   0  0  0  0  0  0           0  0  0
   -0.0167    0.3375    0.0000 O   0  0  0  0  0  0           0  0  0
    1.0125   -1.4375    0.0000 C   0  0  0  0  0  0           0  0  0
    1.0125    0.3375    0.0000 O   0  0  0  0  0  0           0  0  0
    0.5000   -1.7375    0.0000 C   0  0  0  0  0  0           0  0  0
   -5.1333    0.3292    0.0000 C   0  0  0  0  0  0           0  0  0
   -5.1333    0.9250    0.0000 C   0  0  0  0  0  0           0  0  0
   -4.6208    0.0333    0.0000 C   0  0  0  0  0  0           0  0  0
   -4.1083    0.9250    0.0000 C   0  0  0  0  0  0           0  0  0
    4.5917   -0.5208    0.0000 C   0  0  0  0  0  0           0  0  0
    5.1042   -0.8125    0.0000 C   0  0  0  0  0  0           0  0  0
   -0.5292   -0.5542    0.0000 O   0  0  0  0  0  0           0  0  0
   -4.6208    1.2208    0.0000 C   0  0  0  0  0  0           0  0  0
   -4.1042    0.3292    0.0000 C   0  0  0  0  0  0           0  0  0
    0.5000   -2.3333    0.0000 O   0  0  0  0  0  0           0  0  0
   -4.6208   -0.5583    0.0000 O   0  0  0  0  0  0           0  0  0
   -5.6417    1.2208    0.0000 O   0  0  0  0  0  0           0  0  0
    1.5208   -0.5500    0.0000 C   0  0  0  0  0  0           0  0  0
   -0.0167    0.9250    0.0000 C   0  0  3  0  0  0           0  0  0
    5.6167   -0.5125    0.0000 C   0  0  0  0  0  0           0  0  0
    4.0792   -0.8208    0.0000 C   0  0  0  0  0  0           0  0  0
   -3.5958    1.2208    0.0000 C   0  0  0  0  0  0           0  0  0
    2.0375   -0.8375    0.0000 C   0  0  0  0  0  0           0  0  0
    0.5000    1.2208    0.0000 C   0  0  0  0  0  0           0  0  0
   -0.5250    1.2208    0.0000 C   0  0  0  0  0  0           0  0  0
    6.1292   -0.8042    0.0000 C   0  0  0  0  0  0           0  0  0
    3.5667   -0.5333    0.0000 C   0  0  0  0  0  0           0  0  0
   -3.0833    0.9250    0.0000 C   0  0  0  0  0  0           0  0  0
    1.0083    0.9250    0.0000 C   0  0  0  0  0  0           0  0  0
   -1.0417    0.9250    0.0000 C   0  0  0  0  0  0           0  0  0
    2.5417   -0.5375    0.0000 C   0  0  0  0  0  0           0  0  0
   -2.5708    1.2208    0.0000 C   0  0  0  0  0  0           0  0  0
   -1.5458    1.2208    0.0000 C   0  0  0  0  0  0           0  0  0
    3.0583   -0.8292    0.0000 C   0  0  0  0  0  0           0  0  0
   -2.0625    0.9250    0.0000 C   0  0  0  0  0  0           0  0  0
    6.6333   -0.5083    0.0000 C   0  0  0  0  0  0           0  0  0
    1.5208    1.2208    0.0000 C   0  0  0  0  0  0           0  0  0
  2  1  1  0     0  0
  3  1  2  0     0  0
  4  1  1  0     0  0
  5  3  1  0     0  0
  6  2  1  0     0  0
  7  4  2  0     0  0
  8  2  2  0     0  0
  9  5  2  0     0  0
 10 11  2  0     0  0
 11 17  1  0     0  0
 12 18  2  0     0  0
 13 26  1  0     0  0
 14 25  1  0     0  0
 15 14  2  0     0  0
 16  3  1  0     0  0
 17 13  2  0     0  0
 18 13  1  0     0  0
 19  9  1  0     0  0
 20 12  1  0     0  0
 21 11  1  0     0  0
 22  4  1  0     0  0
 23  6  1  0     0  0
 24 15  1  0     0  0
 25 31  1  0     0  0
 26 32  1  0     0  0
 27 22  1  0     0  0
 28 23  1  0     0  0
 29 23  1  0     0  0
 30 24  1  0     0  0
 31 38  1  0     0  0
 32 36  1  0     0  0
 33 28  1  0     0  0
 34 29  1  0     0  0
 35 27  1  0     0  0
 36 39  1  0     0  0
 37 34  1  0     0  0
 38 35  1  0     0  0
 39 37  1  0     0  0
 40 30  1  0     0  0
 41 33  1  0     0  0
  9  7  1  0     0  0
 10 12  1  0     0  0
M  END
>  <prID>
462

>  <IDDB>
107993

>  <pIC50_HIV_Integrase>
4.055517328

>  <Q>
-7.052882154

>  <Activity_Integrase>
Inactive_Integrase

NA
NA
NA
NA
$$$$

  Accelrys05311914302D 1   1.00000     0.00000     0

 39 42  0     0  0            999 V2000
    5.1247   -2.6466    0.0000 C   0  0  1  0  0  0           0  0  0
    5.1178   -1.8397    0.0000 N   0  0  3  0  0  0           0  0  0
    4.8764   -3.4052    0.0000 C   0  0  0  0  0  0           0  0  0
    4.4764   -2.1672    0.0000 O   0  0  0  0  0  0           0  0  0
    5.7833   -1.4362    0.0000 C   0  0  0  0  0  0           0  0  0
    4.4212   -1.4431    0.0000 C   0  0  0  0  0  0           0  0  0
    4.0764   -3.4052    0.0000 C   0  0  1  0  0  0           0  0  0
    3.8281   -2.6466    0.0000 C   0  0  1  0  0  0           0  0  0
    5.8040   -0.6328    0.0000 N   0  0  0  0  0  0           0  0  0
    6.5074   -1.8293    0.0000 O   0  0  0  0  0  0           0  0  0
    4.4143   -0.6397    0.0000 C   0  0  0  0  0  0           0  0  0
    4.0695   -4.2086    0.0000 O   0  0  0  0  0  0           0  0  0
    3.8247   -1.8362    0.0000 C   0  0  0  0  0  0           0  0  0
    5.1074   -0.2362    0.0000 C   0  0  0  0  0  0           0  0  0
    5.0005   -5.0431    0.0000 P   0  0  3  0  0  0           0  0  0
    3.0385   -1.8293    0.0000 O   0  0  0  0  0  0           0  0  0
    5.1005    0.5661    0.0000 N   0  0  0  0  0  0           0  0  0
    5.8178   -5.0466    0.0000 O   0  0  0  0  0  0           0  0  0
    4.9971   -4.2224    0.0000 O   0  0  0  0  0  0           0  0  0
    4.9971   -5.8603    0.0000 O   0  0  0  0  0  0           0  0  0
    2.2212   -1.8259    0.0000 P   0  0  3  0  0  0           0  0  0
    6.6005   -5.0500    0.0000 C   0  0  0  0  0  0           0  0  0
    2.2178   -1.0052    0.0000 O   0  0  0  0  0  0           0  0  0
    1.3419   -1.8190    0.0000 O   0  0  0  0  0  0           0  0  0
    2.2178   -2.6431    0.0000 O   0  0  0  0  0  0           0  0  0
    6.6005   -5.8638    0.0000 C   0  0  2  0  0  0           0  0  0
    6.8488   -6.6224    0.0000 C   0  0  2  0  0  0           0  0  0
    7.2557   -5.3845    0.0000 O   0  0  0  0  0  0           0  0  0
    7.6557   -6.6224    0.0000 C   0  0  1  0  0  0           0  0  0
    6.8867   -7.6603    0.0000 O   0  0  0  0  0  0           0  0  0
    7.9040   -5.8638    0.0000 C   0  0  0  0  0  0           0  0  0
    8.7661   -5.6879    0.0000 N   0  0  3  0  0  0           0  0  0
    9.4281   -5.2810    0.0000 C   0  0  0  0  0  0           0  0  0
    8.0695   -5.2948    0.0000 C   0  0  0  0  0  0           0  0  0
    9.4488   -4.4810    0.0000 N   0  0  0  0  0  0           0  0  0
   10.1523   -5.6810    0.0000 O   0  0  0  0  0  0           0  0  0
    8.0592   -4.4914    0.0000 C   0  0  0  0  0  0           0  0  0
    8.7523   -4.0879    0.0000 C   0  0  0  0  0  0           0  0  0
    8.7454   -3.2810    0.0000 O   0  0  0  0  0  0           0  0  0
  1  2  1  1     0  0
  1  3  1  0     0  0
  1  4  1  0     0  0
  2  5  1  0     0  0
  2  6  1  0     0  0
  3  7  1  0     0  0
  4  8  1  0     0  0
  5  9  1  0     0  0
  5 10  2  0     0  0
  6 11  2  0     0  0
  7 12  1  6     0  0
  8 13  1  1     0  0
  9 14  2  0     0  0
 12 15  1  0     0  0
 13 16  1  0     0  0
 14 17  1  0     0  0
 15 18  1  0     0  0
 15 19  1  0     0  0
 15 20  2  0     0  0
 16 21  1  0     0  0
 18 22  1  0     0  0
 21 23  1  0     0  0
 21 24  1  0     0  0
 21 25  2  0     0  0
 26 22  1  1     0  0
 26 27  1  0     0  0
 26 28  1  0     0  0
 27 29  1  0     0  0
 27 30  1  6     0  0
 28 31  1  0     0  0
 29 32  1  1     0  0
 32 33  1  0     0  0
 32 34  1  0     0  0
 33 35  1  0     0  0
 33 36  2  0     0  0
 34 37  2  0     0  0
 35 38  1  0     0  0
 38 39  2  0     0  0
  7  8  1  0     0  0
 11 14  1  0     0  0
 29 31  1  0     0  0
 37 38  1  0     0  0
M  STY  2   1 SUP   2 SUP
M  SLB  2   1   1   2   2
M  SDS EXP  2   1   2
M  SAL   1  1  24
M  SBL   1  1  23
M  SMT   1 \n5'
M  SBV   1  23    0.8800   -0.0100
M  SCL   1 LGRP
M  SAL   2 15   1   2   3   4   5   6   7   8   9  10  11  12  13  14  16
M  SAL   2  4  17  21  23  25
M  SBL   2  2  14  23
M  SMT   2 C
M  SBV   2  14    0.9400   -0.8400
M  SBV   2  23   -0.8800    0.0100
M  SCL   2 DNA
M  SAP   2  2  12  15 Br  21  24 Al
M  END
>  <prID>
463

>  <IDDB>
108201

>  <pIC50_HIV_Integrase>
5.225498369

>  <Q>
-11.2863162

>  <Activity_Integrase>
Inactive_Integrase

NA
NA
NA
NA
$$$$

  Accelrys05311914332D 1   1.00000     0.00000     0

 40 45  0     0  0            999 V2000
    6.7959   -5.7250    0.0000 C   0  0  0  0  0  0           0  0  0
    6.8125   -2.5459    0.0000 C   0  0  0  0  0  0           0  0  0
    7.4834   -6.1125    0.0000 C   0  0  0  0  0  0           0  0  0
    7.5042   -2.1625    0.0000 C   0  0  0  0  0  0           0  0  0
    4.7542   -4.5417    0.0000 C   0  0  0  0  0  0           0  0  0
    4.7625   -3.7417    0.0000 C   0  0  0  0  0  0           0  0  0
    5.4459   -2.5459    0.0000 C   0  0  0  0  0  0           0  0  0
    5.4250   -5.7250    0.0000 C   0  0  0  0  0  0           0  0  0
    5.4459   -3.3500    0.0000 C   0  0  0  0  0  0           0  0  0
    5.4250   -4.9292    0.0000 C   0  0  0  0  0  0           0  0  0
    6.1250   -6.1125    0.0000 C   0  0  0  0  0  0           0  0  0
    6.1417   -2.1625    0.0000 C   0  0  0  0  0  0           0  0  0
    6.7959   -4.9292    0.0000 C   0  0  0  0  0  0           0  0  0
    6.8125   -3.3500    0.0000 C   0  0  0  0  0  0           0  0  0
    4.0917   -3.3500    0.0000 C   0  0  0  0  0  0           0  0  0
    4.0708   -4.9292    0.0000 C   0  0  0  0  0  0           0  0  0
    7.5042   -3.7417    0.0000 O   0  0  0  0  0  0           0  0  0
    7.4834   -4.5417    0.0000 O   0  0  0  0  0  0           0  0  0
    4.7542   -6.1125    0.0000 C   0  0  0  0  0  0           0  0  0
    4.7625   -2.1625    0.0000 C   0  0  0  0  0  0           0  0  0
    8.1792   -5.7250    0.0000 C   0  0  3  0  0  0           0  0  0
    8.1958   -2.5459    0.0000 C   0  0  3  0  0  0           0  0  0
    6.1417   -3.7417    0.0000 C   0  0  0  0  0  0           0  0  0
    6.1250   -4.5417    0.0000 C   0  0  0  0  0  0           0  0  0
    4.0917   -2.5459    0.0000 C   0  0  0  0  0  0           0  0  0
    4.0708   -5.7250    0.0000 C   0  0  0  0  0  0           0  0  0
    8.1958   -3.3500    0.0000 C   0  0  3  0  0  0           0  0  0
    8.1792   -4.9292    0.0000 C   0  0  3  0  0  0           0  0  0
    7.4834   -6.9084    0.0000 O   0  0  0  0  0  0           0  0  0
    7.5042   -1.3708    0.0000 O   0  0  0  0  0  0           0  0  0
    6.1417   -1.3708    0.0000 O   0  0  0  0  0  0           0  0  0
    6.1250   -6.9084    0.0000 O   0  0  0  0  0  0           0  0  0
    3.3750   -4.5417    0.0000 O   0  0  0  0  0  0           0  0  0
    3.3916   -3.7417    0.0000 O   0  0  0  0  0  0           0  0  0
    4.7625   -1.3708    0.0000 O   0  0  0  0  0  0           0  0  0
    4.7542   -6.9084    0.0000 O   0  0  0  0  0  0           0  0  0
    8.8583   -6.1125    0.0000 C   0  0  0  0  0  0           0  0  0
    8.8792   -2.1625    0.0000 C   0  0  0  0  0  0           0  0  0
    8.8792   -3.7417    0.0000 C   0  0  0  0  0  0           0  0  0
    8.8583   -4.5417    0.0000 C   0  0  0  0  0  0           0  0  0
  2 14  1  0     0  0
  3  1  1  0     0  0
  4  2  1  0     0  0
  5 10  2  0     0  0
  6  5  1  0     0  0
  7  9  2  0     0  0
  8 11  1  0     0  0
  9  6  1  0     0  0
 10 24  1  0     0  0
 11  1  2  0     0  0
 12  7  1  0     0  0
 13  1  1  0     0  0
 14 23  2  0     0  0
 15  6  2  0     0  0
 16  5  1  0     0  0
 17 14  1  0     0  0
 18 13  1  0     0  0
 19  8  2  0     0  0
 20 25  2  0     0  0
 21  3  1  0     0  0
 22  4  1  0     0  0
 23  9  1  0     0  0
 24 13  2  0     0  0
 25 15  1  0     0  0
 26 19  1  0     0  0
 27 17  1  0     0  0
 28 18  1  0     0  0
 29  3  2  0     0  0
 30  4  2  0     0  0
 31 12  1  0     0  0
 32 11  1  0     0  0
 33 16  1  0     0  0
 34 15  1  0     0  0
 35 20  1  0     0  0
 36 19  1  0     0  0
 37 21  1  0     0  0
 38 22  1  0     0  0
 39 27  1  0     0  0
 40 28  1  0     0  0
 21 28  1  0     0  0
  8 10  1  0     0  0
 26 16  2  0     0  0
 20  7  1  0     0  0
  2 12  2  0     0  0
 22 27  1  0     0  0
M  END
>  <prID>
464

>  <IDDB>
109546

>  <pIC50_HIV_Integrase>
4.920818754

>  <Q>
-5.675250139

>  <Activity_Integrase>
Inactive_Integrase

NA
NA
NA
NA
$$$$

  Accelrys05311914302D 1   1.00000     0.00000     0

 41 46  0     0  0            999 V2000
    6.5666   -6.0458    0.0000 C   0  0  0  0  0  0           0  0  0
    6.5708   -2.2375    0.0000 C   0  0  0  0  0  0           0  0  0
    7.2417   -6.4292    0.0000 C   0  0  0  0  0  0           0  0  0
    4.5666   -3.4000    0.0000 C   0  0  0  0  0  0           0  0  0
    4.5625   -4.8834    0.0000 C   0  0  0  0  0  0           0  0  0
    5.2250   -6.0458    0.0000 C   0  0  0  0  0  0           0  0  0
    5.2333   -2.2375    0.0000 C   0  0  0  0  0  0           0  0  0
    7.1709   -1.7458    0.0000 O   0  0  0  0  0  0           0  0  0
    5.2250   -5.2667    0.0000 C   0  0  0  0  0  0           0  0  0
    5.2333   -3.0125    0.0000 C   0  0  0  0  0  0           0  0  0
    5.9042   -6.4292    0.0000 C   0  0  0  0  0  0           0  0  0
    5.9084   -1.8500    0.0000 C   0  0  0  0  0  0           0  0  0
    6.5666   -5.2667    0.0000 C   0  0  0  0  0  0           0  0  0
    7.9250   -1.9125    0.0000 C   0  0  0  0  0  0           0  0  0
    6.5750   -3.0083    0.0000 C   0  0  0  0  0  0           0  0  0
    3.9000   -3.0125    0.0000 C   0  0  0  0  0  0           0  0  0
    3.8959   -5.2667    0.0000 C   0  0  0  0  0  0           0  0  0
    7.2417   -4.8834    0.0000 O   0  0  0  0  0  0           0  0  0
    7.1834   -3.4875    0.0000 O   0  0  0  0  0  0           0  0  0
    4.5625   -6.4292    0.0000 C   0  0  0  0  0  0           0  0  0
    4.5666   -1.8500    0.0000 C   0  0  0  0  0  0           0  0  0
    8.2667   -2.6083    0.0000 C   0  0  1  0  0  0           0  0  0
    7.9167   -6.0458    0.0000 C   0  0  1  0  0  0           0  0  0
    5.9042   -4.8834    0.0000 C   0  0  0  0  0  0           0  0  0
    5.9084   -3.4000    0.0000 C   0  0  0  0  0  0           0  0  0
    3.9000   -2.2375    0.0000 C   0  0  0  0  0  0           0  0  0
    3.8959   -6.0458    0.0000 C   0  0  0  0  0  0           0  0  0
    7.9375   -3.3083    0.0000 C   0  0  1  0  0  0           0  0  0
    7.9167   -5.2667    0.0000 C   0  0  2  0  0  0           0  0  0
    7.2417   -7.2083    0.0000 O   0  0  0  0  0  0           0  0  0
    8.4708   -1.3583    0.0000 O   0  0  0  0  0  0           0  0  0
    5.9042   -7.2083    0.0000 O   0  0  0  0  0  0           0  0  0
    5.9084   -1.0709    0.0000 O   0  0  0  0  0  0           0  0  0
    3.2250   -3.4000    0.0000 O   0  0  0  0  0  0           0  0  0
    3.2208   -4.8834    0.0000 O   0  0  0  0  0  0           0  0  0
    4.5625   -7.2083    0.0000 O   0  0  0  0  0  0           0  0  0
    4.5666   -1.0709    0.0000 O   0  0  0  0  0  0           0  0  0
    9.0375   -2.6083    0.0000 C   0  0  0  0  0  0           0  0  0
    8.5833   -6.4292    0.0000 C   0  0  0  0  0  0           0  0  0
    8.3208   -3.9709    0.0000 C   0  0  0  0  0  0           0  0  0
    8.5833   -4.8834    0.0000 C   0  0  0  0  0  0           0  0  0
  2 15  1  0     0  0
  3  1  1  0     0  0
  4  5  1  0     0  0
  5  9  2  0     0  0
  6 11  1  0     0  0
  7 10  2  0     0  0
  8  2  1  0     0  0
  9 24  1  0     0  0
 10  4  1  0     0  0
 11  1  2  0     0  0
 12  7  1  0     0  0
 13  1  1  0     0  0
 14  8  1  0     0  0
 15 25  2  0     0  0
 16  4  2  0     0  0
 17  5  1  0     0  0
 18 13  1  0     0  0
 19 15  1  0     0  0
 20  6  2  0     0  0
 21 26  2  0     0  0
 22 28  1  0     0  0
 23  3  1  0     0  0
 24 13  2  0     0  0
 25 10  1  0     0  0
 26 16  1  0     0  0
 27 20  1  0     0  0
 28 19  1  0     0  0
 29 18  1  0     0  0
 30  3  2  0     0  0
 31 14  2  0     0  0
 32 11  1  0     0  0
 33 12  1  0     0  0
 34 16  1  0     0  0
 35 17  1  0     0  0
 36 20  1  0     0  0
 37 21  1  0     0  0
 22 38  1  6     0  0
 23 39  1  1     0  0
 28 40  1  1     0  0
 29 41  1  1     0  0
 23 29  1  0     0  0
  6  9  1  0     0  0
 27 17  2  0     0  0
 21  7  1  0     0  0
  2 12  2  0     0  0
 22 14  1  0     0  0
M  END
>  <prID>
465

>  <IDDB>
109548

>  <pIC50_HIV_Integrase>
5.045757491

>  <Q>
-6.059691581

>  <Activity_Integrase>
Inactive_Integrase

NA
NA
NA
NA
$$$$

  Accelrys05311914302D 1   1.00000     0.00000     0

 40 45  0     0  0            999 V2000
    0.5458    1.9917    0.0000 C   0  0  0  0  0  0           0  0  0
    0.5458   -1.9833    0.0000 C   0  0  0  0  0  0           0  0  0
    1.2542    2.4000    0.0000 C   0  0  0  0  0  0           0  0  0
    1.2500   -2.3833    0.0000 C   0  0  0  0  0  0           0  0  0
   -1.5417   -0.7667    0.0000 C   0  0  0  0  0  0           0  0  0
   -1.5375    0.7750    0.0000 C   0  0  0  0  0  0           0  0  0
    1.9667    1.9833    0.0000 C   0  0  0  0  0  0           0  0  0
   -0.8500   -1.9833    0.0000 C   0  0  0  0  0  0           0  0  0
   -0.8417    1.9875    0.0000 C   0  0  0  0  0  0           0  0  0
   -0.8500   -1.1792    0.0000 C   0  0  0  0  0  0           0  0  0
   -0.8417    1.1833    0.0000 C   0  0  0  0  0  0           0  0  0
   -0.1375    2.3917    0.0000 C   0  0  0  0  0  0           0  0  0
   -0.1417   -2.3833    0.0000 C   0  0  0  0  0  0           0  0  0
    0.5375    1.1708    0.0000 C   0  0  0  0  0  0           0  0  0
    0.5458   -1.1792    0.0000 C   0  0  0  0  0  0           0  0  0
    1.9625    1.1625    0.0000 C   0  0  0  0  0  0           0  0  0
    1.2458    0.7583    0.0000 O   0  0  0  0  0  0           0  0  0
   -2.2333   -1.1792    0.0000 C   0  0  0  0  0  0           0  0  0
   -2.2250    1.1833    0.0000 C   0  0  0  0  0  0           0  0  0
    1.2500   -0.7667    0.0000 O   0  0  0  0  0  0           0  0  0
   -1.5417   -2.3833    0.0000 C   0  0  0  0  0  0           0  0  0
   -1.5375    2.3917    0.0000 C   0  0  0  0  0  0           0  0  0
    1.9583   -1.9833    0.0000 C   0  0  3  0  0  0           0  0  0
   -0.1417   -0.7667    0.0000 C   0  0  0  0  0  0           0  0  0
   -0.1375    0.7750    0.0000 C   0  0  0  0  0  0           0  0  0
   -2.2333   -1.9833    0.0000 C   0  0  0  0  0  0           0  0  0
   -2.2250    1.9875    0.0000 C   0  0  0  0  0  0           0  0  0
    1.9583   -1.1792    0.0000 C   0  0  3  0  0  0           0  0  0
    1.2500    3.2208    0.0000 O   0  0  0  0  0  0           0  0  0
    1.2500   -3.1917    0.0000 O   0  0  0  0  0  0           0  0  0
   -0.1375    3.2000    0.0000 O   0  0  0  0  0  0           0  0  0
   -0.1417   -3.1917    0.0000 O   0  0  0  0  0  0           0  0  0
   -2.9417   -0.7667    0.0000 O   0  0  0  0  0  0           0  0  0
   -2.9375    0.7750    0.0000 O   0  0  0  0  0  0           0  0  0
   -1.5375    3.2000    0.0000 O   0  0  0  0  0  0           0  0  0
   -1.5417   -3.1917    0.0000 O   0  0  0  0  0  0           0  0  0
    2.6750    2.4000    0.0000 C   0  0  0  0  0  0           0  0  0
    2.6708    0.7542    0.0000 C   0  0  0  0  0  0           0  0  0
    2.6542   -2.3833    0.0000 C   0  0  0  0  0  0           0  0  0
    2.6542   -0.7667    0.0000 C   0  0  0  0  0  0           0  0  0
  2 15  1  0     0  0
  3  1  1  0     0  0
  4  2  1  0     0  0
  5  6  1  0     0  0
  6 11  1  0     0  0
  7  3  1  0     0  0
  8 10  1  0     0  0
  9 12  2  0     0  0
 10  5  2  0     0  0
 11 25  2  0     0  0
 12  1  1  0     0  0
 13  8  1  0     0  0
 14  1  2  0     0  0
 15 24  2  0     0  0
 16 17  1  0     0  0
 17 14  1  0     0  0
 18  5  1  0     0  0
 19  6  2  0     0  0
 20 15  1  0     0  0
 21 26  1  0     0  0
 22  9  1  0     0  0
 23  4  1  0     0  0
 24 10  1  0     0  0
 25 14  1  0     0  0
 26 18  2  0     0  0
 27 22  2  0     0  0
 28 20  1  0     0  0
 29  3  2  0     0  0
 30  4  2  0     0  0
 31 12  1  0     0  0
 32 13  1  0     0  0
 33 18  1  0     0  0
 34 19  1  0     0  0
 35 22  1  0     0  0
 36 21  1  0     0  0
 37  7  1  0     0  0
 38 16  1  0     0  0
 39 23  1  0     0  0
 40 28  1  0     0  0
  7 16  2  0     0  0
  9 11  1  0     0  0
 27 19  1  0     0  0
 21  8  2  0     0  0
  2 13  2  0     0  0
 23 28  1  0     0  0
M  END
>  <prID>
466

>  <IDDB>
109549

>  <pIC50_HIV_Integrase>
5.397940009

>  <Q>
-5.158882223

>  <Activity_Integrase>
Inactive_Integrase

NA
NA
NA
NA
$$$$

  Accelrys05311914302D 1   1.00000     0.00000     0

 23 24  0     0  0            999 V2000
    1.4250    0.1500    0.0000 C   0  0  0  0  0  0           0  0  0
   -1.4292    0.1458    0.0000 C   0  0  0  0  0  0           0  0  0
    2.1375    0.5708    0.0000 C   0  0  0  0  0  0           0  0  0
   -2.1500    0.5500    0.0000 C   0  0  0  0  0  0           0  0  0
    0.7125    0.5667    0.0000 C   0  0  0  0  0  0           0  0  0
   -0.7167    0.5625    0.0000 C   0  0  0  0  0  0           0  0  0
    0.0000    0.1458    0.0000 C   0  0  0  0  0  0           0  0  0
   -0.7208    1.3833    0.0000 O   0  0  0  0  0  0           0  0  0
    0.7083    1.3875    0.0000 O   0  0  0  0  0  0           0  0  0
    2.8583    0.1625    0.0000 C   0  0  0  0  0  0           0  0  0
   -2.8625    0.1333    0.0000 C   0  0  0  0  0  0           0  0  0
    4.2875   -0.6750    0.0000 C   0  0  0  0  0  0           0  0  0
   -4.2875   -0.6917    0.0000 C   0  0  0  0  0  0           0  0  0
    2.8583   -0.6750    0.0000 C   0  0  0  0  0  0           0  0  0
   -3.5750    0.5458    0.0000 C   0  0  0  0  0  0           0  0  0
   -2.8625   -0.6917    0.0000 C   0  0  0  0  0  0           0  0  0
    3.5708    0.5708    0.0000 C   0  0  0  0  0  0           0  0  0
    4.2875    0.1625    0.0000 C   0  0  0  0  0  0           0  0  0
   -4.2875    0.1333    0.0000 C   0  0  0  0  0  0           0  0  0
   -3.5750   -1.1042    0.0000 C   0  0  0  0  0  0           0  0  0
    3.5708   -1.0875    0.0000 C   0  0  0  0  0  0           0  0  0
    5.0000   -1.0833    0.0000 O   0  0  0  0  0  0           0  0  0
   -5.0042   -1.1000    0.0000 O   0  0  0  0  0  0           0  0  0
  2  6  1  0     0  0
  3  1  2  0     0  0
  4  2  2  0     0  0
  5  1  1  0     0  0
  6  7  1  0     0  0
  7  5  1  0     0  0
  8  6  2  0     0  0
  9  5  2  0     0  0
 10  3  1  0     0  0
 11  4  1  0     0  0
 12 21  2  0     0  0
 13 20  1  0     0  0
 14 10  2  0     0  0
 15 11  2  0     0  0
 16 11  1  0     0  0
 17 10  1  0     0  0
 18 17  2  0     0  0
 19 15  1  0     0  0
 20 16  2  0     0  0
 21 14  1  0     0  0
 22 12  1  0     0  0
 23 13  1  0     0  0
 12 18  1  0     0  0
 13 19  2  0     0  0
M  END
>  <prID>
467

>  <IDDB>
110024

>  <pIC50_HIV_Integrase>
4.096910013

>  <Q>
-0.043147225

>  <Activity_Integrase>
Inactive_Integrase

NA
NA
NA
NA
$$$$

  Accelrys05311914302D 1   1.00000     0.00000     0

 25 26  0     0  0            999 V2000
   -3.8583    0.1042    0.0000 C   0  0  0  0  0  0           0  0  0
   -1.0000    0.1167    0.0000 C   0  0  0  0  0  0           0  0  0
    1.8583    0.1208    0.0000 C   0  0  0  0  0  0           0  0  0
   -1.7208    0.5208    0.0000 C   0  0  0  0  0  0           0  0  0
    2.5708    0.5417    0.0000 C   0  0  0  0  0  0           0  0  0
   -3.8583   -0.7208    0.0000 C   0  0  0  0  0  0           0  0  0
   -0.2833    0.5292    0.0000 C   0  0  0  0  0  0           0  0  0
    1.1417    0.5375    0.0000 C   0  0  0  0  0  0           0  0  0
    0.4333    0.1167    0.0000 C   0  0  0  0  0  0           0  0  0
   -3.1417    0.5167    0.0000 C   0  0  0  0  0  0           0  0  0
   -2.4292    0.1042    0.0000 C   0  0  0  0  0  0           0  0  0
    1.1375    1.3583    0.0000 O   0  0  0  0  0  0           0  0  0
   -0.2917    1.3542    0.0000 O   0  0  0  0  0  0           0  0  0
   -3.1417   -1.1333    0.0000 C   0  0  0  0  0  0           0  0  0
    3.2917    0.1292    0.0000 C   0  0  0  0  0  0           0  0  0
    4.7167   -0.7042    0.0000 C   0  0  0  0  0  0           0  0  0
   -2.4292   -0.7208    0.0000 C   0  0  0  0  0  0           0  0  0
   -4.5750    0.5208    0.0000 O   0  0  0  0  0  0           0  0  0
   -4.5833   -1.1333    0.0000 O   0  0  0  0  0  0           0  0  0
    4.0000    0.5417    0.0000 C   0  0  0  0  0  0           0  0  0
    3.2917   -0.7042    0.0000 C   0  0  0  0  0  0           0  0  0
    4.7167    0.1292    0.0000 C   0  0  0  0  0  0           0  0  0
    4.0000   -1.1167    0.0000 C   0  0  0  0  0  0           0  0  0
    5.4333   -1.1083    0.0000 O   0  0  0  0  0  0           0  0  0
   -5.3125    0.1417    0.0000 C   0  0  0  0  0  0           0  0  0
  2  4  2  0     0  0
  3  8  1  0     0  0
  4 11  1  0     0  0
  5  3  2  0     0  0
  6  1  2  0     0  0
  7  2  1  0     0  0
  8  9  1  0     0  0
  9  7  1  0     0  0
 10  1  1  0     0  0
 11 10  2  0     0  0
 12  8  2  0     0  0
 13  7  2  0     0  0
 14  6  1  0     0  0
 15  5  1  0     0  0
 16 22  1  0     0  0
 17 14  2  0     0  0
 18  1  1  0     0  0
 19  6  1  0     0  0
 20 15  1  0     0  0
 21 15  2  0     0  0
 22 20  2  0     0  0
 23 21  1  0     0  0
 24 16  1  0     0  0
 25 18  1  0     0  0
 17 11  1  0     0  0
 16 23  2  0     0  0
M  END
>  <prID>
468

>  <IDDB>
110025

>  <pIC50_HIV_Integrase>
3.920818754

>  <Q>
-0.273684298

>  <Activity_Integrase>
Inactive_Integrase

NA
NA
NA
NA
$$$$

  Accelrys05311914302D 1   1.00000     0.00000     0

 25 26  0     0  0            999 V2000
   -4.2875    0.0917    0.0000 C   0  0  0  0  0  0           0  0  0
    4.2875    0.1167    0.0000 C   0  0  0  0  0  0           0  0  0
    1.4250    0.1042    0.0000 C   0  0  0  0  0  0           0  0  0
   -1.4292    0.1000    0.0000 C   0  0  0  0  0  0           0  0  0
    2.1375    0.5250    0.0000 C   0  0  0  0  0  0           0  0  0
   -2.1500    0.5042    0.0000 C   0  0  0  0  0  0           0  0  0
   -4.2875   -0.7375    0.0000 C   0  0  0  0  0  0           0  0  0
    4.2875   -0.7167    0.0000 C   0  0  0  0  0  0           0  0  0
   -0.7167    0.5167    0.0000 C   0  0  0  0  0  0           0  0  0
    0.7125    0.5208    0.0000 C   0  0  0  0  0  0           0  0  0
    0.0000    0.1000    0.0000 C   0  0  0  0  0  0           0  0  0
   -3.5750    0.5000    0.0000 C   0  0  0  0  0  0           0  0  0
    3.5708    0.5250    0.0000 C   0  0  0  0  0  0           0  0  0
    2.8583    0.1167    0.0000 C   0  0  0  0  0  0           0  0  0
   -2.8625    0.0917    0.0000 C   0  0  0  0  0  0           0  0  0
    0.7083    1.3417    0.0000 O   0  0  0  0  0  0           0  0  0
   -0.7208    1.3417    0.0000 O   0  0  0  0  0  0           0  0  0
    3.5708   -1.1333    0.0000 C   0  0  0  0  0  0           0  0  0
   -3.5750   -1.1458    0.0000 C   0  0  0  0  0  0           0  0  0
   -5.0042    0.5042    0.0000 O   0  0  0  0  0  0           0  0  0
    5.0000    0.5333    0.0000 O   0  0  0  0  0  0           0  0  0
   -2.8625   -0.7375    0.0000 C   0  0  0  0  0  0           0  0  0
    2.8583   -0.7167    0.0000 C   0  0  0  0  0  0           0  0  0
   -5.0125   -1.1458    0.0000 O   0  0  0  0  0  0           0  0  0
    5.0000   -1.1208    0.0000 O   0  0  0  0  0  0           0  0  0
  2 13  2  0     0  0
  3 10  1  0     0  0
  4  6  2  0     0  0
  5  3  2  0     0  0
  6 15  1  0     0  0
  7  1  2  0     0  0
  8 18  2  0     0  0
  9  4  1  0     0  0
 10 11  1  0     0  0
 11  9  1  0     0  0
 12  1  1  0     0  0
 13 14  1  0     0  0
 14  5  1  0     0  0
 15 12  2  0     0  0
 16 10  2  0     0  0
 17  9  2  0     0  0
 18 23  1  0     0  0
 19  7  1  0     0  0
 20  1  1  0     0  0
 21  2  1  0     0  0
 22 15  1  0     0  0
 23 14  2  0     0  0
 24  7  1  0     0  0
 25  8  1  0     0  0
 22 19  2  0     0  0
  8  2  1  0     0  0
M  END
>  <prID>
469

>  <IDDB>
110026

>  <pIC50_HIV_Integrase>
5.508638306

>  <Q>
-1.671912545

>  <Activity_Integrase>
Inactive_Integrase

NA
NA
NA
NA
$$$$

  Accelrys05311914302D 1   1.00000     0.00000     0

 26 27  0     0  0            999 V2000
   -4.5083    0.0833    0.0000 C   0  0  0  0  0  0           0  0  0
    4.0667    0.1083    0.0000 C   0  0  0  0  0  0           0  0  0
   -1.6500    0.0958    0.0000 C   0  0  0  0  0  0           0  0  0
    1.2042    0.1000    0.0000 C   0  0  0  0  0  0           0  0  0
   -2.3708    0.5000    0.0000 C   0  0  0  0  0  0           0  0  0
    1.9167    0.5208    0.0000 C   0  0  0  0  0  0           0  0  0
   -4.5083   -0.7417    0.0000 C   0  0  0  0  0  0           0  0  0
    4.0667   -0.7250    0.0000 C   0  0  0  0  0  0           0  0  0
    0.4917    0.5167    0.0000 C   0  0  0  0  0  0           0  0  0
   -0.9375    0.5083    0.0000 C   0  0  0  0  0  0           0  0  0
   -0.2208    0.0958    0.0000 C   0  0  0  0  0  0           0  0  0
   -3.7958    0.4958    0.0000 C   0  0  0  0  0  0           0  0  0
    3.3500    0.5208    0.0000 C   0  0  0  0  0  0           0  0  0
   -3.0833    0.0833    0.0000 C   0  0  0  0  0  0           0  0  0
    2.6375    0.1083    0.0000 C   0  0  0  0  0  0           0  0  0
   -0.9417    1.3333    0.0000 O   0  0  0  0  0  0           0  0  0
    0.4875    1.3375    0.0000 O   0  0  0  0  0  0           0  0  0
   -3.7958   -1.1542    0.0000 C   0  0  0  0  0  0           0  0  0
    3.3500   -1.1375    0.0000 C   0  0  0  0  0  0           0  0  0
   -5.2250    0.5000    0.0000 O   0  0  0  0  0  0           0  0  0
    2.6375   -0.7250    0.0000 C   0  0  0  0  0  0           0  0  0
   -3.0833   -0.7417    0.0000 C   0  0  0  0  0  0           0  0  0
    4.7792    0.5292    0.0000 O   0  0  0  0  0  0           0  0  0
    4.7792   -1.1292    0.0000 O   0  0  0  0  0  0           0  0  0
   -5.2333   -1.1542    0.0000 O   0  0  0  0  0  0           0  0  0
    5.4917    0.1167    0.0000 C   0  0  0  0  0  0           0  0  0
  2 13  2  0     0  0
  3  5  2  0     0  0
  4  9  1  0     0  0
  5 14  1  0     0  0
  6  4  2  0     0  0
  7  1  2  0     0  0
  8 19  2  0     0  0
  9 11  1  0     0  0
 10  3  1  0     0  0
 11 10  1  0     0  0
 12  1  1  0     0  0
 13 15  1  0     0  0
 14 12  2  0     0  0
 15  6  1  0     0  0
 16 10  2  0     0  0
 17  9  2  0     0  0
 18  7  1  0     0  0
 19 21  1  0     0  0
 20  1  1  0     0  0
 21 15  2  0     0  0
 22 18  2  0     0  0
 23  2  1  0     0  0
 24  8  1  0     0  0
 25  7  1  0     0  0
 26 23  1  0     0  0
 22 14  1  0     0  0
  8  2  1  0     0  0
M  END
>  <prID>
470

>  <IDDB>
110027

>  <pIC50_HIV_Integrase>
5.045757491

>  <Q>
-1.088066957

>  <Activity_Integrase>
Inactive_Integrase

NA
NA
NA
NA
$$$$

  Accelrys05311914332D 1   1.00000     0.00000     0

 26 29  0     0  0            999 V2000
   -2.5000   -0.2125    0.0000 N   0  0  0  0  0  0           0  0  0
    2.4958    0.2083    0.0000 N   0  0  0  0  0  0           0  0  0
   -3.2167    0.2000    0.0000 C   0  0  0  0  0  0           0  0  0
    3.2083   -0.2000    0.0000 C   0  0  0  0  0  0           0  0  0
   -0.3583    0.2042    0.0000 N   0  0  0  0  0  0           0  0  0
    0.3583   -0.2042    0.0000 N   0  0  0  0  0  0           0  0  0
   -1.0708   -0.2083    0.0000 C   0  0  0  0  0  0           0  0  0
    1.0708    0.2083    0.0000 C   0  0  0  0  0  0           0  0  0
   -3.9292   -0.2083    0.0000 C   0  0  0  0  0  0           0  0  0
    3.9167    0.2208    0.0000 C   0  0  0  0  0  0           0  0  0
    1.7875   -0.2042    0.0000 C   0  0  0  0  0  0           0  0  0
   -1.7833    0.2000    0.0000 C   0  0  0  0  0  0           0  0  0
    3.2125   -1.0250    0.0000 C   0  0  0  0  0  0           0  0  0
   -3.2167    1.0292    0.0000 C   0  0  0  0  0  0           0  0  0
   -2.5042    1.4417    0.0000 C   0  0  0  0  0  0           0  0  0
    2.5000   -1.4417    0.0000 C   0  0  0  0  0  0           0  0  0
   -1.7875    1.0333    0.0000 C   0  0  0  0  0  0           0  0  0
    1.7833   -1.0292    0.0000 C   0  0  0  0  0  0           0  0  0
   -3.9250   -1.0333    0.0000 O   0  0  0  0  0  0           0  0  0
    3.9125    1.0417    0.0000 O   0  0  0  0  0  0           0  0  0
   -4.6417    1.0292    0.0000 C   0  0  0  0  0  0           0  0  0
    4.6458   -1.0167    0.0000 C   0  0  0  0  0  0           0  0  0
   -4.6417    0.2000    0.0000 C   0  0  0  0  0  0           0  0  0
    4.6375   -0.1875    0.0000 C   0  0  0  0  0  0           0  0  0
    3.9292   -1.4375    0.0000 C   0  0  0  0  0  0           0  0  0
   -3.9250    1.4417    0.0000 C   0  0  0  0  0  0           0  0  0
  2 11  1  0     0  0
  3  1  1  0     0  0
  4  2  2  0     0  0
  5  7  2  0     0  0
  6  5  1  0     0  0
  7 12  1  0     0  0
  8  6  2  0     0  0
  9  3  2  0     0  0
 10  4  1  0     0  0
 11  8  1  0     0  0
 12  1  2  0     0  0
 13 16  2  0     0  0
 14  3  1  0     0  0
 15 17  2  0     0  0
 16 18  1  0     0  0
 17 12  1  0     0  0
 18 11  2  0     0  0
 19  9  1  0     0  0
 20 10  1  0     0  0
 21 23  2  0     0  0
 22 25  2  0     0  0
 23  9  1  0     0  0
 24 10  2  0     0  0
 25 13  1  0     0  0
 26 14  2  0     0  0
 15 14  1  0     0  0
 21 26  1  0     0  0
 13  4  1  0     0  0
 22 24  1  0     0  0
M  END
>  <prID>
471

>  <IDDB>
110679

>  <pIC50_HIV_Integrase>
4.161150909

>  <Q>
-0.48213244

>  <Activity_Integrase>
Inactive_Integrase

NA
NA
NA
NA
$$$$

  Accelrys05311914302D 1   1.00000     0.00000     0

 38 42  0     0  0            999 V2000
   -1.0125    0.8208    0.0000 C   0  0  0  0  0  0           0  0  0
    1.0000    0.7833    0.0000 C   0  0  0  0  0  0           0  0  0
   -1.8000    0.4458    0.0000 C   0  0  0  0  0  0           0  0  0
    1.7958    0.4125    0.0000 C   0  0  0  0  0  0           0  0  0
   -1.0125    1.5625    0.0000 C   0  0  0  0  0  0           0  0  0
    1.0042    1.5208    0.0000 C   0  0  0  0  0  0           0  0  0
    0.0375    0.3667    0.0000 C   0  0  3  0  0  0           0  0  0
   -1.8042    1.9250    0.0000 O   0  0  0  0  0  0           0  0  0
    1.8000    1.8875    0.0000 O   0  0  0  0  0  0           0  0  0
    2.5792    0.7833    0.0000 C   0  0  0  0  0  0           0  0  0
   -2.5833    0.8208    0.0000 C   0  0  0  0  0  0           0  0  0
   -2.5875    1.5625    0.0000 C   0  0  0  0  0  0           0  0  0
    2.5792    1.5208    0.0000 C   0  0  0  0  0  0           0  0  0
    0.0250   -0.3708    0.0000 C   0  0  0  0  0  0           0  0  0
   -0.4542    1.9125    0.0000 O   0  0  0  0  0  0           0  0  0
    0.4458    1.8750    0.0000 O   0  0  0  0  0  0           0  0  0
    0.0250   -1.8458    0.0000 C   0  0  0  0  0  0           0  0  0
    0.0167   -2.6750    0.0000 N   0  0  3  0  0  0           0  0  0
   -1.8000   -0.2875    0.0000 O   0  0  0  0  0  0           0  0  0
    1.7958   -0.3250    0.0000 O   0  0  0  0  0  0           0  0  0
   -0.7625   -0.7375    0.0000 C   0  0  0  0  0  0           0  0  0
    0.8083   -0.7375    0.0000 C   0  0  0  0  0  0           0  0  0
   -0.7625   -1.4708    0.0000 C   0  0  0  0  0  0           0  0  0
    0.8083   -1.4708    0.0000 C   0  0  0  0  0  0           0  0  0
   -3.3625    0.4458    0.0000 C   0  0  0  0  0  0           0  0  0
    3.3542    0.4125    0.0000 C   0  0  0  0  0  0           0  0  0
   -2.2167   -3.0458    0.0000 Cl  0  0  0  0  0  0           0  0  0
    2.1583   -3.0792    0.0000 Cl  0  0  0  0  0  0           0  0  0
    3.3583    1.8875    0.0000 C   0  0  0  0  0  0           0  0  0
   -3.3625    1.9250    0.0000 C   0  0  0  0  0  0           0  0  0
   -0.7917   -3.0500    0.0000 C   0  0  0  0  0  0           0  0  0
    0.7333   -3.0792    0.0000 C   0  0  0  0  0  0           0  0  0
   -1.5042   -2.6375    0.0000 C   0  0  0  0  0  0           0  0  0
    1.4458   -2.6708    0.0000 C   0  0  0  0  0  0           0  0  0
    4.1542    0.7833    0.0000 C   0  0  0  0  0  0           0  0  0
   -4.1625    0.8208    0.0000 C   0  0  0  0  0  0           0  0  0
   -4.1667    1.5625    0.0000 C   0  0  0  0  0  0           0  0  0
    4.1583    1.5208    0.0000 C   0  0  0  0  0  0           0  0  0
  2  7  1  0     0  0
  3  1  2  0     0  0
  4  2  2  0     0  0
  5  1  1  0     0  0
  6  2  1  0     0  0
  7  1  1  0     0  0
  8  5  1  0     0  0
  9  6  1  0     0  0
 10  4  1  0     0  0
 11  3  1  0     0  0
 12  8  1  0     0  0
 13  9  1  0     0  0
 14  7  1  0     0  0
 15  5  2  0     0  0
 16  6  2  0     0  0
 17 24  1  0     0  0
 18 17  1  0     0  0
 19  3  1  0     0  0
 20  4  1  0     0  0
 21 14  2  0     0  0
 22 14  1  0     0  0
 23 21  1  0     0  0
 24 22  2  0     0  0
 25 11  1  0     0  0
 26 10  1  0     0  0
 27 33  1  0     0  0
 28 34  1  0     0  0
 29 13  1  0     0  0
 30 12  1  0     0  0
 31 18  1  0     0  0
 32 18  1  0     0  0
 33 31  1  0     0  0
 34 32  1  0     0  0
 35 26  2  0     0  0
 36 25  2  0     0  0
 37 30  2  0     0  0
 38 29  2  0     0  0
 12 11  2  0     0  0
 17 23  2  0     0  0
 37 36  1  0     0  0
 13 10  2  0     0  0
 38 35  1  0     0  0
M  END
>  <prID>
472

>  <IDDB>
112641

>  <pIC50_HIV_Integrase>
4.920818754

>  <Q>
-2.635472315

>  <Activity_Integrase>
Inactive_Integrase

NA
NA
NA
NA
$$$$

  Accelrys05311914302D 1   1.00000     0.00000     0

 41 45  0     0  0            999 V2000
   -1.1208    1.0208    0.0000 C   0  0  0  0  0  0           0  0  0
    0.8958    0.9792    0.0000 C   0  0  0  0  0  0           0  0  0
   -1.9083    0.6417    0.0000 C   0  0  0  0  0  0           0  0  0
    1.6875    0.6042    0.0000 C   0  0  0  0  0  0           0  0  0
   -0.0667    0.5625    0.0000 C   0  0  3  0  0  0           0  0  0
   -1.1208    1.7583    0.0000 C   0  0  0  0  0  0           0  0  0
    0.9000    1.7208    0.0000 C   0  0  0  0  0  0           0  0  0
    0.7000   -1.2792    0.0000 C   0  0  0  0  0  0           0  0  0
    1.4125   -1.6875    0.0000 N   0  3  0  0  0  0           0  0  0
   -1.9167    2.1208    0.0000 O   0  0  0  0  0  0           0  0  0
    1.6917    2.0833    0.0000 O   0  0  0  0  0  0           0  0  0
    2.4708    0.9792    0.0000 C   0  0  0  0  0  0           0  0  0
   -2.6917    1.0208    0.0000 C   0  0  0  0  0  0           0  0  0
   -0.0833   -0.1750    0.0000 C   0  0  0  0  0  0           0  0  0
   -0.0833   -1.6500    0.0000 C   0  0  0  0  0  0           0  0  0
    0.7000   -0.5417    0.0000 C   0  0  0  0  0  0           0  0  0
   -2.6958    1.7583    0.0000 C   0  0  0  0  0  0           0  0  0
    2.4750    1.7208    0.0000 C   0  0  0  0  0  0           0  0  0
   -0.8667   -1.2792    0.0000 C   0  0  0  0  0  0           0  0  0
   -0.5625    2.1042    0.0000 O   0  0  0  0  0  0           0  0  0
    0.3375    2.0667    0.0000 O   0  0  0  0  0  0           0  0  0
    2.2625   -1.1375    0.0000 O   0  5  0  0  0  0           0  0  0
    1.4167   -2.5083    0.0000 O   0  0  0  0  0  0           0  0  0
   -0.0875   -2.4792    0.0000 N   0  0  3  0  0  0           0  0  0
   -0.8667   -0.5417    0.0000 C   0  0  0  0  0  0           0  0  0
    1.6875   -0.1292    0.0000 O   0  0  0  0  0  0           0  0  0
   -1.9083   -0.0917    0.0000 O   0  0  0  0  0  0           0  0  0
    3.2458    0.6042    0.0000 C   0  0  0  0  0  0           0  0  0
   -3.4667    0.6417    0.0000 C   0  0  0  0  0  0           0  0  0
   -2.3208   -2.8500    0.0000 Cl  0  0  0  0  0  0           0  0  0
    1.5375   -3.9292    0.0000 Cl  0  0  0  0  0  0           0  0  0
    3.2500    2.0833    0.0000 C   0  0  0  0  0  0           0  0  0
   -3.4708    2.1208    0.0000 C   0  0  0  0  0  0           0  0  0
   -0.9000   -2.8542    0.0000 C   0  0  0  0  0  0           0  0  0
    0.3125   -3.1958    0.0000 C   0  0  0  0  0  0           0  0  0
   -1.6125   -2.4417    0.0000 C   0  0  0  0  0  0           0  0  0
    1.1375   -3.2125    0.0000 C   0  0  0  0  0  0           0  0  0
    4.0458    0.9792    0.0000 C   0  0  0  0  0  0           0  0  0
   -4.2708    1.0208    0.0000 C   0  0  0  0  0  0           0  0  0
   -4.2750    1.7583    0.0000 C   0  0  0  0  0  0           0  0  0
    4.0500    1.7208    0.0000 C   0  0  0  0  0  0           0  0  0
  2  5  1  0     0  0
  3  1  2  0     0  0
  4  2  2  0     0  0
  5  1  1  0     0  0
  6  1  1  0     0  0
  7  2  1  0     0  0
  8 16  2  0     0  0
  9  8  1  0     0  0
 10  6  1  0     0  0
 11  7  1  0     0  0
 12  4  1  0     0  0
 13  3  1  0     0  0
 14  5  1  0     0  0
 15 19  2  0     0  0
 16 14  1  0     0  0
 17 10  1  0     0  0
 18 11  1  0     0  0
 19 25  1  0     0  0
 20  6  2  0     0  0
 21  7  2  0     0  0
 22  9  1  0     0  0
 23  9  2  0     0  0
 24 15  1  0     0  0
 25 14  2  0     0  0
 26  4  1  0     0  0
 27  3  1  0     0  0
 28 12  1  0     0  0
 29 13  1  0     0  0
 30 36  1  0     0  0
 31 37  1  0     0  0
 32 18  1  0     0  0
 33 17  1  0     0  0
 34 24  1  0     0  0
 35 24  1  0     0  0
 36 34  1  0     0  0
 37 35  1  0     0  0
 38 28  2  0     0  0
 39 29  2  0     0  0
 40 33  2  0     0  0
 41 32  2  0     0  0
 17 13  2  0     0  0
 40 39  1  0     0  0
 15  8  1  0     0  0
 18 12  2  0     0  0
 41 38  1  0     0  0
M  CHG  2   9   1  22  -1
M  END
>  <prID>
473

>  <IDDB>
112642

>  <pIC50_HIV_Integrase>
5.397940009

>  <Q>
-2.799865617

>  <Activity_Integrase>
Inactive_Integrase

NA
NA
NA
NA
$$$$

  Accelrys05311914302D 1   1.00000     0.00000     0

 21 23  0     0  0            999 V2000
    6.1845   -0.9435    0.0000 C   0  0  0  0  0  0           0  0  0
    6.1833   -1.7708    0.0000 C   0  0  0  0  0  0           0  0  0
    6.8981   -2.1837    0.0000 C   0  0  0  0  0  0           0  0  0
    7.6146   -1.7704    0.0000 C   0  0  0  0  0  0           0  0  0
    7.6117   -0.9398    0.0000 C   0  0  0  0  0  0           0  0  0
    6.8963   -0.5307    0.0000 C   0  0  0  0  0  0           0  0  0
    4.0500   -2.1875    0.0000 C   0  0  0  0  0  0           0  0  0
    4.0500   -3.0125    0.0000 C   0  0  0  0  0  0           0  0  0
    4.7620   -3.4208    0.0000 C   0  0  0  0  0  0           0  0  0
    5.4740   -3.0125    0.0000 C   0  0  0  0  0  0           0  0  0
    5.4740   -2.1875    0.0000 C   0  0  0  0  0  0           0  0  0
    4.7620   -1.7708    0.0000 O   0  0  0  0  0  0           0  0  0
    2.6194   -2.1875    0.0000 C   0  0  0  0  0  0           0  0  0
    2.6182   -3.0148    0.0000 C   0  0  0  0  0  0           0  0  0
    3.3331   -3.4277    0.0000 C   0  0  0  0  0  0           0  0  0
    3.3313   -1.7747    0.0000 C   0  0  0  0  0  0           0  0  0
    4.7542   -4.2458    0.0000 O   0  0  0  0  0  0           0  0  0
    1.9000   -1.7708    0.0000 O   0  0  0  0  0  0           0  0  0
    8.3208   -0.5208    0.0000 O   0  0  0  0  0  0           0  0  0
    9.0333   -0.9333    0.0000 C   0  0  0  0  0  0           0  0  0
    3.3250   -4.2500    0.0000 C   0  0  0  0  0  0           0  0  0
  8  9  1  0     0  0
  9 10  1  0     0  0
 10 11  2  0     0  0
 11 12  1  0     0  0
  6  1  1  0     0  0
  7  8  1  0     0  0
 13 14  2  0     0  0
  1  2  2  0     0  0
 14 15  1  0     0  0
 15  8  2  0     0  0
  3  4  2  0     0  0
  7 16  2  0     0  0
 16 13  1  0     0  0
 11  2  1  0     0  0
  9 17  2  0     0  0
  4  5  1  0     0  0
 13 18  1  0     0  0
  2  3  1  0     0  0
  5 19  1  0     0  0
  5  6  2  0     0  0
 19 20  1  0     0  0
  7 12  1  0     0  0
 15 21  1  0     0  0
M  END
>  <prID>
474

>  <IDDB>
112699

>  <pIC50_HIV_Integrase>
3.4102284125

>  <Q>
-0.228812629

>  <Activity_Integrase>
Inactive_Integrase

NA
NA
NA
NA
$$$$

  Accelrys05311914302D 1   1.00000     0.00000     0

 66 72  0     0  0            999 V2000
    0.8417   -0.5542    0.0000 N   0  0  0  0  0  0           0  0  0
    2.9375   -0.1583    0.0000 N   0  0  0  0  0  0           0  0  0
    0.8375    2.4750    0.0000 C   0  0  0  0  0  0           0  0  0
    1.5417   -0.1583    0.0000 C   0  0  0  0  0  0           0  0  0
    2.4667    1.9958    0.0000 C   0  0  0  0  0  0           0  0  0
    2.2417   -0.5583    0.0000 C   0  0  3  0  0  0           0  0  0
    2.5583    1.1833    0.0000 N   0  0  0  0  0  0           0  0  0
   -0.5542   -0.5500    0.0000 C   0  0  0  0  0  0           0  0  0
    0.1458   -0.1542    0.0000 C   0  0  1  0  0  0           0  0  0
    3.7625    1.7208    0.0000 C   0  0  0  0  0  0           0  0  0
    3.6375   -0.5583    0.0000 C   0  0  0  0  0  0           0  0  0
    1.8125    2.4667    0.0000 C   0  0  0  0  0  0           0  0  0
    0.1417    1.2625    0.0000 C   0  0  0  0  0  0           0  0  0
   -1.2500   -0.1500    0.0000 N   0  0  0  0  0  0           0  0  0
    2.2375   -1.3625    0.0000 C   0  0  0  0  0  0           0  0  0
   -0.5625    2.4750    0.0000 C   0  0  0  0  0  0           0  0  0
   -1.9542   -1.3542    0.0000 C   0  0  0  0  0  0           0  0  0
    0.1375    2.8750    0.0000 C   0  0  0  0  0  0           0  0  0
    0.8375    1.6708    0.0000 C   0  0  0  0  0  0           0  0  0
    3.2125    2.3292    0.0000 C   0  0  0  0  0  0           0  0  0
   -1.9500   -0.5417    0.0000 C   0  0  3  0  0  0           0  0  0
    3.3542    1.0167    0.0000 C   0  0  0  0  0  0           0  0  0
    2.2250   -2.9833    0.0000 C   0  0  0  0  0  0           0  0  0
   -1.9667   -2.9792    0.0000 C   0  0  0  0  0  0           0  0  0
   -2.6625   -2.5583    0.0000 C   0  0  0  0  0  0           0  0  0
   -1.2625   -2.5750    0.0000 C   0  0  0  0  0  0           0  0  0
    1.5250   -2.5750    0.0000 C   0  0  0  0  0  0           0  0  0
    2.9292   -2.5833    0.0000 C   0  0  0  0  0  0           0  0  0
   -0.5625    1.6625    0.0000 C   0  0  0  0  0  0           0  0  0
   -2.5000    0.0958    0.0000 C   0  0  0  0  0  0           0  0  0
    1.5333   -1.7667    0.0000 C   0  0  0  0  0  0           0  0  0
    2.9375   -1.7750    0.0000 C   0  0  0  0  0  0           0  0  0
   -2.6542   -1.7583    0.0000 C   0  0  0  0  0  0           0  0  0
   -1.2542   -1.7625    0.0000 C   0  0  0  0  0  0           0  0  0
    4.5500    0.7500    0.0000 C   0  0  0  0  0  0           0  0  0
    4.3375   -0.1625    0.0000 C   0  0  1  0  0  0           0  0  0
   -4.7417   -0.5375    0.0000 C   0  0  0  0  0  0           0  0  0
   -1.2333    2.9833    0.0000 O   0  0  0  0  0  0           0  0  0
   -4.0417   -0.1375    0.0000 C   0  0  3  0  0  0           0  0  0
    1.5375    0.6500    0.0000 O   0  0  0  0  0  0           0  0  0
   -0.5583   -1.3583    0.0000 O   0  0  0  0  0  0           0  0  0
    3.6375   -1.3708    0.0000 O   0  0  0  0  0  0           0  0  0
   -2.1292    0.7833    0.0000 O   0  0  0  0  0  0           0  0  0
   -4.7417   -1.3417    0.0000 O   0  0  0  0  0  0           0  0  0
   -4.0542    1.3833    0.0000 C   0  0  0  0  0  0           0  0  0
   -1.9292    2.5750    0.0000 C   0  0  0  0  0  0           0  0  0
   -3.3625   -2.9583    0.0000 Cl  0  0  0  0  0  0           0  0  0
   -0.5625   -2.9792    0.0000 Cl  0  0  0  0  0  0           0  0  0
    3.6250   -2.9833    0.0000 Cl  0  0  0  0  0  0           0  0  0
    0.8208   -2.9750    0.0000 Cl  0  0  0  0  0  0           0  0  0
    0.1375    3.6833    0.0000 O   0  0  0  0  0  0           0  0  0
   -3.3417   -0.6583    0.0000 N   0  0  0  0  0  0           0  0  0
   -1.9750   -3.7792    0.0000 O   0  0  0  0  0  0           0  0  0
    2.2167   -3.7958    0.0000 O   0  0  0  0  0  0           0  0  0
    5.0375   -0.5625    0.0000 N   0  0  0  0  0  0           0  0  0
   -3.3458    1.7833    0.0000 C   0  0  0  0  0  0           0  0  0
   -3.2208    0.2208    0.0000 O   0  0  0  0  0  0           0  0  0
   -5.4417   -0.1375    0.0000 O   0  0  0  0  0  0           0  0  0
    1.8875    3.2792    0.0000 C   0  0  0  0  0  0           0  0  0
   -2.6208    2.9875    0.0000 C   0  0  0  0  0  0           0  0  0
   -1.9417    1.7625    0.0000 C   0  0  0  0  0  0           0  0  0
   -2.6417    1.3667    0.0000 C   0  0  0  0  0  0           0  0  0
   -3.3417    2.5917    0.0000 C   0  0  0  0  0  0           0  0  0
    3.3000    3.1333    0.0000 C   0  0  0  0  0  0           0  0  0
    2.6333    3.6208    0.0000 C   0  0  0  0  0  0           0  0  0
   -3.3417   -1.5000    0.0000 C   0  0  0  0  0  0           0  0  0
  2  6  1  0     0  0
  3 19  1  0     0  0
  4  1  1  0     0  0
  5 12  1  0     0  0
  6  4  1  0     0  0
  7  5  1  0     0  0
  8  9  1  0     0  0
  9  1  1  0     0  0
 10 35  1  0     0  0
 11  2  1  0     0  0
 12  3  1  0     0  0
  9 13  1  1     0  0
 14  8  1  0     0  0
 15  6  1  0     0  0
 16 29  2  0     0  0
 17 21  1  0     0  0
 18 16  1  0     0  0
 19 13  2  0     0  0
 20  5  2  0     0  0
 21 14  1  0     0  0
 22 10  2  0     0  0
 23 28  1  0     0  0
 24 26  1  0     0  0
 25 33  1  0     0  0
 26 34  2  0     0  0
 27 31  1  0     0  0
 28 32  2  0     0  0
 29 13  1  0     0  0
 30 21  1  0     0  0
 31 15  2  0     0  0
 32 15  1  0     0  0
 33 17  2  0     0  0
 34 17  1  0     0  0
 36 35  1  1     0  0
 36 11  1  0     0  0
 37 39  1  0     0  0
 38 16  1  0     0  0
 39 45  1  0     0  0
 40  4  2  0     0  0
 41  8  2  0     0  0
 42 11  2  0     0  0
 43 30  2  0     0  0
 44 37  2  0     0  0
 45 56  1  0     0  0
 46 38  1  0     0  0
 47 25  1  0     0  0
 48 26  1  0     0  0
 49 28  1  0     0  0
 50 27  1  0     0  0
 51 18  1  0     0  0
 52 39  1  0     0  0
 53 24  1  0     0  0
 54 23  1  0     0  0
 55 36  1  0     0  0
 56 63  1  0     0  0
 57 30  1  0     0  0
 58 37  1  0     0  0
 59 12  2  0     0  0
 60 46  1  0     0  0
 61 46  2  0     0  0
 62 61  1  0     0  0
 63 60  2  0     0  0
 64 65  2  0     0  0
 65 59  1  0     0  0
 66 52  1  0     0  0
 23 27  2  0     0  0
 18  3  2  0     0  0
 24 25  2  0     0  0
 10 20  1  0     0  0
 22  7  1  0     0  0
 56 62  2  0     0  0
 64 20  1  0     0  0
M  END
>  <prID>
475

>  <IDDB>
113433

>  <pIC50_HIV_Integrase>
4.346787486

>  <Q>
-11.68100375

>  <Activity_Integrase>
Inactive_Integrase

NA
NA
NA
NA
$$$$

  Accelrys05311914302D 1   1.00000     0.00000     0

 66 72  0     0  0            999 V2000
    0.8125   -0.5375    0.0000 N   0  0  0  0  0  0           0  0  0
    2.9083   -0.1458    0.0000 N   0  0  0  0  0  0           0  0  0
    0.8083    2.4917    0.0000 C   0  0  0  0  0  0           0  0  0
   -2.5625   -0.0458    0.0000 C   0  0  0  0  0  0           0  0  0
    1.5125   -0.1417    0.0000 C   0  0  0  0  0  0           0  0  0
    2.4375    2.0083    0.0000 C   0  0  0  0  0  0           0  0  0
    2.2125   -0.5417    0.0000 C   0  0  3  0  0  0           0  0  0
    2.5250    1.1958    0.0000 N   0  0  0  0  0  0           0  0  0
   -3.2833   -0.5167    0.0000 N   0  0  3  0  0  0           0  0  0
    3.7333    1.7375    0.0000 C   0  0  0  0  0  0           0  0  0
    3.6083   -0.5458    0.0000 C   0  0  0  0  0  0           0  0  0
    1.7792    2.4833    0.0000 C   0  0  0  0  0  0           0  0  0
    0.1125    1.2750    0.0000 C   0  0  0  0  0  0           0  0  0
    0.1167   -0.1375    0.0000 C   0  0  2  0  0  0           0  0  0
    2.2083   -1.3500    0.0000 C   0  0  0  0  0  0           0  0  0
   -0.5917    2.4875    0.0000 C   0  0  0  0  0  0           0  0  0
   -1.9833   -1.3375    0.0000 C   0  0  0  0  0  0           0  0  0
    0.1125    2.8917    0.0000 C   0  0  0  0  0  0           0  0  0
    0.8125    1.6833    0.0000 C   0  0  0  0  0  0           0  0  0
   -4.0750   -0.1250    0.0000 C   0  0  3  0  0  0           0  0  0
    3.1792    2.3417    0.0000 C   0  0  0  0  0  0           0  0  0
   -1.9792   -0.5292    0.0000 C   0  0  3  0  0  0           0  0  0
    3.3250    1.0292    0.0000 C   0  0  0  0  0  0           0  0  0
    2.1958   -2.9708    0.0000 C   0  0  0  0  0  0           0  0  0
   -1.9958   -2.9625    0.0000 C   0  0  0  0  0  0           0  0  0
    2.9000   -2.5708    0.0000 C   0  0  0  0  0  0           0  0  0
   -2.6917   -2.5458    0.0000 C   0  0  0  0  0  0           0  0  0
   -1.2917   -2.5583    0.0000 C   0  0  0  0  0  0           0  0  0
    1.5000   -2.5583    0.0000 C   0  0  0  0  0  0           0  0  0
   -4.7708   -0.5208    0.0000 C   0  0  0  0  0  0           0  0  0
   -0.4708   -0.7333    0.0000 C   0  0  0  0  0  0           0  0  0
   -0.5917    1.6792    0.0000 C   0  0  0  0  0  0           0  0  0
    1.5042   -1.7542    0.0000 C   0  0  0  0  0  0           0  0  0
    2.9083   -1.7583    0.0000 C   0  0  0  0  0  0           0  0  0
   -1.2833   -1.7458    0.0000 C   0  0  0  0  0  0           0  0  0
   -2.6833   -1.7417    0.0000 C   0  0  0  0  0  0           0  0  0
    4.5208    0.7667    0.0000 C   0  0  0  0  0  0           0  0  0
    4.3042   -0.1500    0.0000 C   0  0  1  0  0  0           0  0  0
   -1.2625    3.0000    0.0000 O   0  0  0  0  0  0           0  0  0
   -2.5625    0.7000    0.0000 O   0  0  0  0  0  0           0  0  0
    1.5083    0.6667    0.0000 O   0  0  0  0  0  0           0  0  0
   -4.0833    1.4000    0.0000 C   0  0  0  0  0  0           0  0  0
    3.6042   -1.3542    0.0000 O   0  0  0  0  0  0           0  0  0
   -4.7750   -1.3292    0.0000 O   0  0  0  0  0  0           0  0  0
   -0.4708   -1.4208    0.0000 O   0  0  0  0  0  0           0  0  0
   -1.3167    0.1417    0.0000 N   0  0  0  0  0  0           0  0  0
   -1.9583    2.5875    0.0000 C   0  0  0  0  0  0           0  0  0
    3.6000   -2.9708    0.0000 Cl  0  0  0  0  0  0           0  0  0
    0.7917   -2.9583    0.0000 Cl  0  0  0  0  0  0           0  0  0
   -3.3958   -2.9458    0.0000 Cl  0  0  0  0  0  0           0  0  0
   -0.5958   -2.9625    0.0000 Cl  0  0  0  0  0  0           0  0  0
    0.1042    3.7000    0.0000 O   0  0  0  0  0  0           0  0  0
    2.1875   -3.7792    0.0000 O   0  0  0  0  0  0           0  0  0
   -2.0000   -3.7667    0.0000 O   0  0  0  0  0  0           0  0  0
   -3.3792    1.8000    0.0000 C   0  0  0  0  0  0           0  0  0
    5.0042   -0.5500    0.0000 N   0  0  0  0  0  0           0  0  0
   -5.4708   -0.1208    0.0000 O   0  0  0  0  0  0           0  0  0
   -1.2542   -0.7333    0.0000 O   0  0  0  0  0  0           0  0  0
    1.8583    3.2917    0.0000 C   0  0  0  0  0  0           0  0  0
   -3.2875   -1.3417    0.0000 C   0  0  0  0  0  0           0  0  0
   -1.9708    1.7792    0.0000 C   0  0  0  0  0  0           0  0  0
   -2.6542    3.0000    0.0000 C   0  0  0  0  0  0           0  0  0
   -2.6750    1.3833    0.0000 C   0  0  0  0  0  0           0  0  0
   -3.3708    2.6083    0.0000 C   0  0  0  0  0  0           0  0  0
    3.2750    3.1500    0.0000 C   0  0  0  0  0  0           0  0  0
    2.6000    3.6333    0.0000 C   0  0  0  0  0  0           0  0  0
  2  7  1  0     0  0
  3 19  1  0     0  0
  4  9  1  0     0  0
  5  1  1  0     0  0
  6 12  1  0     0  0
  7  5  1  0     0  0
  8  6  1  0     0  0
  9 20  1  0     0  0
 10 37  1  0     0  0
 11  2  1  0     0  0
 12  3  1  0     0  0
 14 13  1  1     0  0
 14  1  1  0     0  0
 15  7  1  0     0  0
 16 32  2  0     0  0
 17 22  1  0     0  0
 18 16  1  0     0  0
 19 13  2  0     0  0
 20 42  1  0     0  0
 21  6  2  0     0  0
 22  4  1  0     0  0
 23 10  2  0     0  0
 24 26  1  0     0  0
 25 28  1  0     0  0
 26 34  2  0     0  0
 27 36  1  0     0  0
 28 35  2  0     0  0
 29 33  1  0     0  0
 30 20  1  0     0  0
 31 14  1  0     0  0
 32 13  1  0     0  0
 33 15  2  0     0  0
 34 15  1  0     0  0
 35 17  1  0     0  0
 36 17  2  0     0  0
 38 37  1  1     0  0
 38 11  1  0     0  0
 39 16  1  0     0  0
 40  4  2  0     0  0
 41  5  2  0     0  0
 42 55  1  0     0  0
 43 11  2  0     0  0
 44 30  2  0     0  0
 45 31  2  0     0  0
 46 22  1  0     0  0
 47 39  1  0     0  0
 48 26  1  0     0  0
 49 29  1  0     0  0
 50 27  1  0     0  0
 51 28  1  0     0  0
 52 18  1  0     0  0
 53 24  1  0     0  0
 54 25  1  0     0  0
 55 64  1  0     0  0
 56 38  1  0     0  0
 57 30  1  0     0  0
 58 31  1  0     0  0
 59 12  2  0     0  0
 60  9  1  0     0  0
 61 47  2  0     0  0
 62 47  1  0     0  0
 63 61  1  0     0  0
 64 62  2  0     0  0
 65 66  2  0     0  0
 66 59  1  0     0  0
 24 29  2  0     0  0
 18  3  2  0     0  0
 10 21  1  0     0  0
 23  8  1  0     0  0
 55 63  2  0     0  0
 65 21  1  0     0  0
 25 27  2  0     0  0
M  END
>  <prID>
476

>  <IDDB>
113434

>  <pIC50_HIV_Integrase>
4.065501549

>  <Q>
-11.46354902

>  <Activity_Integrase>
Inactive_Integrase

NA
NA
NA
NA
$$$$

  Accelrys05311914302D 1   1.00000     0.00000     0

 16 16  0     0  0            999 V2000
    6.8000   -3.6083    0.0000 C   0  0  0  0  0  0           0  0  0
    7.5167   -3.1834    0.0000 C   0  0  0  0  0  0           0  0  0
    8.2333   -3.6000    0.0000 C   0  0  0  0  0  0           0  0  0
    6.0833   -3.1958    0.0000 C   0  0  0  0  0  0           0  0  0
    8.2250   -4.4292    0.0000 O   0  0  0  0  0  0           0  0  0
    6.0750   -2.3625    0.0000 O   0  0  0  0  0  0           0  0  0
    7.5084   -2.3542    0.0000 O   0  0  0  0  0  0           0  0  0
    8.9500   -3.1834    0.0000 O   0  0  0  0  0  0           0  0  0
    5.3708   -3.6125    0.0000 C   0  0  0  0  0  0           0  0  0
    4.6542   -3.2000    0.0000 C   0  0  0  0  0  0           0  0  0
    3.9375   -3.6166    0.0000 C   0  0  0  0  0  0           0  0  0
    3.9375   -4.4417    0.0000 C   0  0  0  0  0  0           0  0  0
    3.2166   -3.2083    0.0000 C   0  0  0  0  0  0           0  0  0
    3.2208   -4.8542    0.0000 C   0  0  0  0  0  0           0  0  0
    2.5084   -3.6166    0.0000 C   0  0  0  0  0  0           0  0  0
    2.5084   -4.4375    0.0000 C   0  0  0  0  0  0           0  0  0
  2  1  1  0     0  0
  3  2  1  0     0  0
  4  1  1  0     0  0
  5  3  2  0     0  0
  6  4  2  0     0  0
  7  2  2  0     0  0
  8  3  1  0     0  0
  9  4  1  0     0  0
 10  9  1  0     0  0
 11 10  1  0     0  0
 12 11  2  0     0  0
 13 11  1  0     0  0
 14 12  1  0     0  0
 15 13  2  0     0  0
 16 14  2  0     0  0
 16 15  1  0     0  0
M  END
>  <prID>
477

>  <IDDB>
113531

>  <pIC50_HIV_Integrase>
4.522878745

>  <Q>
-1.10482331

>  <Activity_Integrase>
Inactive_Integrase

NA
NA
NA
NA
$$$$

  Accelrys05311914302D 1   1.00000     0.00000     0

 19 19  0     0  0            999 V2000
    4.0167   -1.8125    0.0000 C   0  0  0  0  0  0           0  0  0
    1.8667   -1.4000    0.0000 C   0  0  0  0  0  0           0  0  0
    4.7375   -1.3917    0.0000 C   0  0  0  0  0  0           0  0  0
    1.1542   -1.8208    0.0000 C   0  0  0  0  0  0           0  0  0
    5.4500   -1.8042    0.0000 C   0  0  0  0  0  0           0  0  0
    3.3042   -1.3917    0.0000 C   0  0  0  0  0  0           0  0  0
    2.5875   -1.8167    0.0000 C   0  0  0  0  0  0           0  0  0
    0.4333   -1.4083    0.0000 C   0  0  0  0  0  0           0  0  0
    1.8667   -0.5667    0.0000 O   0  0  0  0  0  0           0  0  0
    5.4417   -2.6375    0.0000 O   0  0  0  0  0  0           0  0  0
    3.3000   -0.5667    0.0000 O   0  0  0  0  0  0           0  0  0
    4.7292   -0.5625    0.0000 O   0  0  0  0  0  0           0  0  0
    6.1667   -1.3875    0.0000 O   0  0  0  0  0  0           0  0  0
    0.4292   -0.5792    0.0000 O   0  0  0  0  0  0           0  0  0
    1.1542   -2.6458    0.0000 C   0  0  0  0  0  0           0  0  0
   -0.2708   -1.8208    0.0000 C   0  0  0  0  0  0           0  0  0
   -0.2875   -0.1667    0.0000 C   0  0  0  0  0  0           0  0  0
    0.4375   -3.0542    0.0000 C   0  0  0  0  0  0           0  0  0
   -0.2708   -2.6417    0.0000 C   0  0  0  0  0  0           0  0  0
  2  7  1  0     0  0
  3  1  2  0     0  0
  4  2  1  0     0  0
  5  3  1  0     0  0
  6  1  1  0     0  0
  7  6  1  0     0  0
  8  4  1  0     0  0
  9  2  2  0     0  0
 10  5  2  0     0  0
 11  6  2  0     0  0
 12  3  1  0     0  0
 13  5  1  0     0  0
 14  8  1  0     0  0
 15  4  2  0     0  0
 16  8  2  0     0  0
 17 14  1  0     0  0
 18 15  1  0     0  0
 19 18  2  0     0  0
 19 16  1  0     0  0
M  END
>  <prID>
478

>  <IDDB>
113534

>  <pIC50_HIV_Integrase>
3.721246399

>  <Q>
-1.363371272

>  <Activity_Integrase>
Inactive_Integrase

NA
NA
NA
NA
$$$$

  Accelrys05311914302D 1   1.00000     0.00000     0

 17 17  0     0  0            999 V2000
    3.6542   -0.5667    0.0000 C   0  0  0  0  0  0           0  0  0
    4.3750   -0.1500    0.0000 C   0  0  0  0  0  0           0  0  0
    5.0875   -0.5667    0.0000 C   0  0  0  0  0  0           0  0  0
    1.5042   -0.1542    0.0000 C   0  0  0  0  0  0           0  0  0
    2.9417   -0.1542    0.0000 C   0  0  0  0  0  0           0  0  0
    2.2250   -0.5750    0.0000 C   0  0  0  0  0  0           0  0  0
    5.0792   -1.3917    0.0000 O   0  0  0  0  0  0           0  0  0
    1.5042    0.6708    0.0000 O   0  0  0  0  0  0           0  0  0
    0.7917   -0.5792    0.0000 C   0  0  0  0  0  0           0  0  0
    2.9375    0.6750    0.0000 O   0  0  0  0  0  0           0  0  0
    4.3667    0.6833    0.0000 O   0  0  0  0  0  0           0  0  0
    5.8042   -0.1417    0.0000 O   0  0  0  0  0  0           0  0  0
    0.0708   -0.1667    0.0000 C   0  0  0  0  0  0           0  0  0
    0.7917   -1.4042    0.0000 C   0  0  0  0  0  0           0  0  0
   -0.6333   -0.5792    0.0000 C   0  0  0  0  0  0           0  0  0
    0.0750   -1.8125    0.0000 C   0  0  0  0  0  0           0  0  0
   -0.6333   -1.4000    0.0000 C   0  0  0  0  0  0           0  0  0
  2  1  2  0     0  0
  3  2  1  0     0  0
  4  6  1  0     0  0
  5  1  1  0     0  0
  6  5  1  0     0  0
  7  3  2  0     0  0
  8  4  2  0     0  0
  9  4  1  0     0  0
 10  5  2  0     0  0
 11  2  1  0     0  0
 12  3  1  0     0  0
 13  9  1  0     0  0
 14  9  2  0     0  0
 15 13  2  0     0  0
 16 14  1  0     0  0
 17 16  2  0     0  0
 17 15  1  0     0  0
M  END
>  <prID>
479

>  <IDDB>
113541

>  <pIC50_HIV_Integrase>
4.468521083

>  <Q>
-1.100176505

>  <Activity_Integrase>
Inactive_Integrase

NA
NA
NA
NA
$$$$

  Accelrys05311914302D 1   1.00000     0.00000     0

 21 23  0     0  0            999 V2000
    9.4456   -3.6652    0.0000 C   0  0  0  0  0  0           0  0  0
   10.0912   -3.2894    0.0000 C   0  0  0  0  0  0           0  0  0
   10.0883   -2.5380    0.0000 C   0  0  0  0  0  0           0  0  0
    9.4438   -2.1664    0.0000 C   0  0  0  0  0  0           0  0  0
    8.7932   -3.2898    0.0000 C   0  0  0  0  0  0           0  0  0
    8.7932   -2.5416    0.0000 C   0  0  0  0  0  0           0  0  0
    8.1494   -2.1641    0.0000 C   0  0  0  0  0  0           0  0  0
    7.5010   -2.5386    0.0000 C   0  0  0  0  0  0           0  0  0
    7.5010   -3.2910    0.0000 C   0  0  0  0  0  0           0  0  0
    8.1494   -3.6647    0.0000 C   0  0  0  0  0  0           0  0  0
    9.4417   -4.4083    0.0000 O   0  0  0  0  0  0           0  0  0
    9.4416   -1.4205    0.0000 O   0  0  0  0  0  0           0  0  0
   10.7375   -3.6625    0.0000 O   0  0  0  0  0  0           0  0  0
   10.7333   -2.1625    0.0000 C   0  0  0  0  0  0           0  0  0
   11.3750   -2.5333    0.0000 C   0  0  0  0  0  0           0  0  0
   11.3712   -3.2744    0.0000 C   0  0  0  0  0  0           0  0  0
   12.0121   -3.6493    0.0000 C   0  0  0  0  0  0           0  0  0
   12.6515   -3.2759    0.0000 C   0  0  0  0  0  0           0  0  0
   12.6540   -2.5317    0.0000 C   0  0  0  0  0  0           0  0  0
   12.0126   -2.1647    0.0000 C   0  0  0  0  0  0           0  0  0
   13.2917   -3.6458    0.0000 Cl  0  0  0  0  0  0           0  0  0
  8  9  1  0     0  0
  9 10  2  0     0  0
  5  6  2  0     0  0
  1  2  1  0     0  0
  5  1  1  0     0  0
  4 12  2  0     0  0
  2  3  2  0     0  0
  2 13  1  0     0  0
  3 14  1  0     0  0
  3  4  1  0     0  0
 14 15  1  0     0  0
  4  6  1  0     0  0
 15 16  2  0     0  0
  5 10  1  0     0  0
 16 17  1  0     0  0
  6  7  1  0     0  0
 17 18  2  0     0  0
  7  8  2  0     0  0
 18 19  1  0     0  0
  1 11  2  0     0  0
 19 20  2  0     0  0
 20 15  1  0     0  0
 18 21  1  0     0  0
M  END
>  <prID>
480

>  <IDDB>
113936

>  <pIC50_HIV_Integrase>
4.251811973

>  <Q>
-0.609251998

>  <Activity_Integrase>
Inactive_Integrase

NA
NA
NA
NA
$$$$

  Accelrys05311914312D 1   1.00000     0.00000     0

 23 25  0     0  0            999 V2000
   -0.2181   -4.7500    0.0000 C   0  0  0  0  0  0           0  0  0
   -0.2193   -5.5773    0.0000 C   0  0  0  0  0  0           0  0  0
    0.4956   -5.9902    0.0000 C   0  0  0  0  0  0           0  0  0
    1.2120   -5.5769    0.0000 C   0  0  0  0  0  0           0  0  0
    1.2091   -4.7463    0.0000 C   0  0  0  0  0  0           0  0  0
    0.4938   -4.3372    0.0000 C   0  0  0  0  0  0           0  0  0
   -0.9341   -5.9893    0.0000 F   0  0  0  0  0  0           0  0  0
    1.9221   -4.3311    0.0000 C   0  0  0  0  0  0           0  0  0
    1.9189   -3.5061    0.0000 N   0  0  3  0  0  0           0  0  0
    2.5808   -3.0188    0.0000 C   0  0  0  0  0  0           0  0  0
    2.3233   -2.2348    0.0000 C   0  0  0  0  0  0           0  0  0
    1.4983   -2.2379    0.0000 C   0  0  0  0  0  0           0  0  0
    1.2464   -3.0235    0.0000 C   0  0  0  0  0  0           0  0  0
    3.3011   -3.4211    0.0000 C   0  0  0  0  0  0           0  0  0
    3.3128   -4.2460    0.0000 O   0  0  0  0  0  0           0  0  0
    4.0096   -2.9985    0.0000 C   0  0  0  0  0  0           0  0  0
    4.7299   -3.4008    0.0000 C   0  0  0  0  0  0           0  0  0
    5.4384   -2.9781    0.0000 C   0  0  0  0  0  0           0  0  0
    4.7416   -4.2257    0.0000 O   0  0  0  0  0  0           0  0  0
    6.1947   -3.2999    0.0000 N   0  0  0  0  0  0           0  0  0
    6.7380   -2.6790    0.0000 N   0  0  0  0  0  0           0  0  0
    6.3153   -1.9705    0.0000 N   0  0  0  0  0  0           0  0  0
    5.5109   -2.1536    0.0000 N   0  0  0  0  0  0           0  0  0
  6  1  1  0     0  0
 10 11  2  0     0  0
 11 12  1  0     0  0
 12 13  2  0     0  0
 13  9  1  0     0  0
  1  2  2  0     0  0
 10 14  1  0     0  0
  2  7  1  0     0  0
 14 15  2  0     0  0
  3  4  2  0     0  0
 14 16  1  0     0  0
  5  8  1  0     0  0
 16 17  1  0     0  0
 17 18  1  0     0  0
  8  9  1  0     0  0
 17 19  2  0     0  0
 18 20  2  0     0  0
  9 10  1  0     0  0
  4  5  1  0     0  0
  2  3  1  0     0  0
  5  6  2  0     0  0
 20 21  1  0     0  0
 21 22  2  0     0  0
 22 23  1  0     0  0
 23 18  1  0     0  0
M  END
>  <prID>
481

>  <IDDB>
122033

>  <pIC50_HIV_Integrase>
6.774875446

>  <Q>
-3.326293897

>  <Activity_Integrase>
Active_Integrase

NA
NA
NA
NA
$$$$

  Accelrys05311914312D 1   1.00000     0.00000     0

 22 23  0     0  0            999 V2000
    7.9750   -4.6042    0.0000 N   0  0  3  0  0  0           0  0  0
    8.6458   -4.1250    0.0000 C   0  0  0  0  0  0           0  0  0
    9.3583   -4.5417    0.0000 C   0  0  0  0  0  0           0  0  0
   10.0708   -4.1292    0.0000 C   0  0  0  0  0  0           0  0  0
   10.7875   -4.5417    0.0000 C   0  0  0  0  0  0           0  0  0
   11.5041   -4.1333    0.0000 C   0  0  0  0  0  0           0  0  0
    7.3083   -4.1250    0.0000 C   0  0  0  0  0  0           0  0  0
    7.9750   -5.4333    0.0000 C   0  0  0  0  0  0           0  0  0
    8.3875   -3.3375    0.0000 C   0  0  0  0  0  0           0  0  0
    7.5625   -3.3375    0.0000 C   0  0  0  0  0  0           0  0  0
    9.3541   -5.3625    0.0000 O   0  0  0  0  0  0           0  0  0
   11.5041   -3.3083    0.0000 O   0  0  0  0  0  0           0  0  0
   10.7875   -5.3667    0.0000 O   0  0  0  0  0  0           0  0  0
    7.2625   -5.8417    0.0000 C   0  0  0  0  0  0           0  0  0
   12.2166   -4.5458    0.0000 O   0  0  0  0  0  0           0  0  0
    5.8333   -6.6625    0.0000 C   0  0  0  0  0  0           0  0  0
    5.1208   -7.0792    0.0000 F   0  0  0  0  0  0           0  0  0
    7.2666   -6.6625    0.0000 C   0  0  0  0  0  0           0  0  0
    6.5500   -5.4250    0.0000 C   0  0  0  0  0  0           0  0  0
    5.8333   -5.8417    0.0000 C   0  0  0  0  0  0           0  0  0
    6.5500   -7.0792    0.0000 C   0  0  0  0  0  0           0  0  0
   12.2156   -5.3708    0.0000 C   0  0  0  0  0  0           0  0  0
  2  1  1  0     0  0
  3  2  1  0     0  0
  4  3  1  0     0  0
  5  4  1  0     0  0
  6  5  1  0     0  0
  7  1  1  0     0  0
  8  1  1  0     0  0
  9  2  2  0     0  0
 10  7  2  0     0  0
 11  3  2  0     0  0
 12  6  2  0     0  0
 13  5  2  0     0  0
 14  8  1  0     0  0
 15  6  1  0     0  0
 16 21  1  0     0  0
 17 16  1  0     0  0
 18 14  1  0     0  0
 19 14  2  0     0  0
 20 19  1  0     0  0
 21 18  2  0     0  0
 10  9  1  0     0  0
 16 20  2  0     0  0
 15 22  1  0     0  0
M  END
>  <prID>
482

>  <IDDB>
122034

>  <pIC50_HIV_Integrase>
4.318758763

>  <Q>
-1.901393151

>  <Activity_Integrase>
Inactive_Integrase

NA
NA
NA
NA
$$$$

  Accelrys05311914312D 1   1.00000     0.00000     0

 15 15  0     0  0            999 V2000
    5.1375   -3.6084    0.0000 C   0  0  0  0  0  0           0  0  0
    5.8542   -3.1959    0.0000 C   0  0  0  0  0  0           0  0  0
    6.5708   -3.6084    0.0000 C   0  0  0  0  0  0           0  0  0
    8.0042   -3.6084    0.0000 C   0  0  0  0  0  0           0  0  0
    8.7208   -3.1959    0.0000 O   0  0  0  0  0  0           0  0  0
    5.8542   -2.3625    0.0000 O   0  0  0  0  0  0           0  0  0
    7.2875   -2.3625    0.0000 O   0  0  0  0  0  0           0  0  0
    4.4203   -3.1904    0.0000 C   0  0  0  0  0  0           0  0  0
    3.7083   -3.6064    0.0000 C   0  0  0  0  0  0           0  0  0
    3.7088   -4.4347    0.0000 C   0  0  0  0  0  0           0  0  0
    4.4273   -4.8495    0.0000 C   0  0  0  0  0  0           0  0  0
    5.1406   -4.4312    0.0000 C   0  0  0  0  0  0           0  0  0
    2.9894   -3.1903    0.0000 Br  0  0  0  0  0  0           0  0  0
    7.2792   -3.1959    0.0000 C   0  0  0  0  0  0           0  0  0
    8.0063   -4.4375    0.0000 O   0  0  0  0  0  0           0  0  0
  1  8  2  0     0  0
 14  4  1  0     0  0
  8  9  1  0     0  0
  9 10  2  0     0  0
  4  5  1  0     0  0
 10 11  1  0     0  0
  2  3  1  0     0  0
 11 12  2  0     0  0
 12  1  1  0     0  0
  2  6  2  0     0  0
  9 13  1  0     0  0
  3 14  1  0     0  0
  7 14  2  0     0  0
  1  2  1  0     0  0
  4 15  2  0     0  0
M  END
>  <prID>
483

>  <IDDB>
122858

>  <pIC50_HIV_Integrase>
5.698970004

>  <Q>
-0.566541269

>  <Activity_Integrase>
Inactive_Integrase

NA
NA
NA
NA
$$$$

  Accelrys05311914312D 1   1.00000     0.00000     0

 22 23  0     0  0            999 V2000
    1.3194   -2.6291    0.0000 C   0  0  0  0  0  0           0  0  0
    1.3182   -3.4565    0.0000 C   0  0  0  0  0  0           0  0  0
    2.0331   -3.8694    0.0000 C   0  0  0  0  0  0           0  0  0
    2.7495   -3.4560    0.0000 C   0  0  0  0  0  0           0  0  0
    2.7466   -2.6255    0.0000 C   0  0  0  0  0  0           0  0  0
    2.0313   -2.2164    0.0000 C   0  0  0  0  0  0           0  0  0
    3.4583   -3.8667    0.0000 C   0  0  0  0  0  0           0  0  0
    4.1750   -3.4583    0.0000 O   0  0  0  0  0  0           0  0  0
    6.3216   -3.8713    0.0000 C   0  0  0  0  0  0           0  0  0
    7.0341   -3.4588    0.0000 C   0  0  0  0  0  0           0  0  0
    7.7466   -3.8672    0.0000 C   0  0  0  0  0  0           0  0  0
    8.4591   -3.4547    0.0000 C   0  0  0  0  0  0           0  0  0
    9.1716   -3.8630    0.0000 C   0  0  0  0  0  0           0  0  0
    9.8841   -3.4505    0.0000 O   0  0  0  0  0  0           0  0  0
    4.8944   -3.8750    0.0000 C   0  0  0  0  0  0           0  0  0
    4.8932   -4.7023    0.0000 C   0  0  0  0  0  0           0  0  0
    5.6081   -5.1152    0.0000 C   0  0  0  0  0  0           0  0  0
    6.3245   -4.7019    0.0000 C   0  0  0  0  0  0           0  0  0
    5.6063   -3.4622    0.0000 C   0  0  0  0  0  0           0  0  0
    7.0292   -2.6333    0.0000 O   0  0  0  0  0  0           0  0  0
    8.4542   -2.6292    0.0000 O   0  0  0  0  0  0           0  0  0
    9.1667   -4.6875    0.0000 O   0  0  0  0  0  0           0  0  0
  5  6  2  0     0  0
 11 12  1  0     0  0
  6  1  1  0     0  0
 12 13  1  0     0  0
  1  2  2  0     0  0
 13 14  1  0     0  0
  4  7  1  0     0  0
  3  4  2  0     0  0
 15 16  2  0     0  0
  8  7  1  0     0  0
 16 17  1  0     0  0
 17 18  2  0     0  0
 18  9  1  0     0  0
  4  5  1  0     0  0
  9 19  2  0     0  0
 19 15  1  0     0  0
  9 10  1  0     0  0
 10 20  2  0     0  0
  2  3  1  0     0  0
 12 21  2  0     0  0
 10 11  1  0     0  0
 13 22  2  0     0  0
 15  8  1  0     0  0
M  END
>  <prID>
484

>  <IDDB>
122859

>  <pIC50_HIV_Integrase>
6.886056648

>  <Q>
-0.354269775

>  <Activity_Integrase>
Active_Integrase

NA
NA
NA
NA
$$$$

  Accelrys05311914312D 1   1.00000     0.00000     0

 23 24  0     0  0            999 V2000
    5.3917   -4.4250    0.0000 C   0  0  0  0  0  0           0  0  0
    6.1042   -4.0125    0.0000 C   0  0  0  0  0  0           0  0  0
    6.8208   -4.4250    0.0000 C   0  0  0  0  0  0           0  0  0
    8.2542   -4.4250    0.0000 C   0  0  0  0  0  0           0  0  0
    8.9708   -4.0125    0.0000 O   0  0  0  0  0  0           0  0  0
    6.1042   -3.1834    0.0000 O   0  0  0  0  0  0           0  0  0
    7.5250   -3.2042    0.0000 O   0  0  0  0  0  0           0  0  0
    4.6745   -4.0112    0.0000 C   0  0  0  0  0  0           0  0  0
    3.9583   -4.4230    0.0000 C   0  0  0  0  0  0           0  0  0
    3.9588   -5.2514    0.0000 C   0  0  0  0  0  0           0  0  0
    4.6815   -5.6662    0.0000 C   0  0  0  0  0  0           0  0  0
    5.3948   -5.2479    0.0000 C   0  0  0  0  0  0           0  0  0
    7.5292   -4.0125    0.0000 C   0  0  0  0  0  0           0  0  0
    8.2563   -5.2542    0.0000 O   0  0  0  0  0  0           0  0  0
    3.2394   -4.0111    0.0000 N   0  0  0  0  0  0           0  0  0
    3.2388   -3.1778    0.0000 C   0  0  0  0  0  0           0  0  0
    2.5198   -2.7658    0.0000 O   0  0  0  0  0  0           0  0  0
    3.9571   -2.7647    0.0000 C   0  0  0  0  0  0           0  0  0
    4.6743   -3.1775    0.0000 C   0  0  0  0  0  0           0  0  0
    5.3921   -2.7652    0.0000 C   0  0  0  0  0  0           0  0  0
    5.3920   -1.9351    0.0000 C   0  0  0  0  0  0           0  0  0
    4.6680   -1.5192    0.0000 C   0  0  0  0  0  0           0  0  0
    3.9531   -1.9380    0.0000 C   0  0  0  0  0  0           0  0  0
 11 12  2  0     0  0
 12  1  1  0     0  0
  2  6  2  0     0  0
  7 13  2  0     0  0
  3 13  1  0     0  0
  4 14  2  0     0  0
  1  2  1  0     0  0
  9 15  1  0     0  0
  1  8  2  0     0  0
 15 16  1  0     0  0
 13  4  1  0     0  0
 16 17  2  0     0  0
  8  9  1  0     0  0
 16 18  1  0     0  0
 18 19  2  0     0  0
  9 10  2  0     0  0
 19 20  1  0     0  0
  4  5  1  0     0  0
 20 21  2  0     0  0
 10 11  1  0     0  0
 21 22  1  0     0  0
  2  3  1  0     0  0
 22 23  2  0     0  0
 23 18  1  0     0  0
M  END
>  <prID>
485

>  <IDDB>
122860

>  <pIC50_HIV_Integrase>
4.482285131

>  <Q>
-0.799282909

>  <Activity_Integrase>
Inactive_Integrase

NA
NA
NA
NA
$$$$

  Accelrys05311914312D 1   1.00000     0.00000     0

 21 22  0     0  0            999 V2000
    6.0917   -3.5417    0.0000 C   0  0  0  0  0  0           0  0  0
    6.8083   -3.1250    0.0000 C   0  0  0  0  0  0           0  0  0
    7.5250   -3.5417    0.0000 C   0  0  0  0  0  0           0  0  0
    8.9583   -3.5417    0.0000 C   0  0  0  0  0  0           0  0  0
    9.6750   -3.1250    0.0000 O   0  0  0  0  0  0           0  0  0
    6.8083   -2.2959    0.0000 O   0  0  0  0  0  0           0  0  0
    8.2292   -2.3167    0.0000 O   0  0  0  0  0  0           0  0  0
    5.3787   -3.1237    0.0000 C   0  0  0  0  0  0           0  0  0
    4.6625   -3.5397    0.0000 C   0  0  0  0  0  0           0  0  0
    4.6630   -4.3681    0.0000 C   0  0  0  0  0  0           0  0  0
    5.3857   -4.7787    0.0000 C   0  0  0  0  0  0           0  0  0
    6.0948   -4.3646    0.0000 C   0  0  0  0  0  0           0  0  0
    8.2334   -3.1250    0.0000 C   0  0  0  0  0  0           0  0  0
    8.9604   -4.3709    0.0000 O   0  0  0  0  0  0           0  0  0
    3.9454   -4.7824    0.0000 O   0  0  0  0  0  0           0  0  0
    3.2258   -4.3717    0.0000 C   0  0  0  0  0  0           0  0  0
    3.2272   -3.5423    0.0000 C   0  0  0  0  0  0           0  0  0
    2.5083   -3.1275    0.0000 C   0  0  0  0  0  0           0  0  0
    1.7897   -3.5461    0.0000 C   0  0  0  0  0  0           0  0  0
    1.7944   -4.3795    0.0000 C   0  0  0  0  0  0           0  0  0
    2.5139   -4.7864    0.0000 C   0  0  0  0  0  0           0  0  0
 10 11  1  0     0  0
  2  3  1  0     0  0
 11 12  2  0     0  0
 12  1  1  0     0  0
  2  6  2  0     0  0
  7 13  2  0     0  0
  3 13  1  0     0  0
  4 14  2  0     0  0
  1  2  1  0     0  0
 10 15  1  0     0  0
  1  8  2  0     0  0
 15 16  1  0     0  0
 13  4  1  0     0  0
 16 17  2  0     0  0
  8  9  1  0     0  0
 17 18  1  0     0  0
 18 19  2  0     0  0
  9 10  2  0     0  0
 19 20  1  0     0  0
  4  5  1  0     0  0
 20 21  2  0     0  0
 21 16  1  0     0  0
M  END
>  <prID>
486

>  <IDDB>
122861

>  <pIC50_HIV_Integrase>
5.107905397

>  <Q>
-0.331716801

>  <Activity_Integrase>
Inactive_Integrase

NA
NA
NA
NA
$$$$

  Accelrys05311914312D 1   1.00000     0.00000     0

 14 14  0     0  0            999 V2000
    4.6583   -3.6084    0.0000 C   0  0  0  0  0  0           0  0  0
    5.3750   -3.1959    0.0000 C   0  0  0  0  0  0           0  0  0
    6.0875   -3.6084    0.0000 C   0  0  0  0  0  0           0  0  0
    7.5208   -3.6084    0.0000 C   0  0  0  0  0  0           0  0  0
    8.2375   -3.1959    0.0000 O   0  0  0  0  0  0           0  0  0
    5.3750   -2.3625    0.0000 O   0  0  0  0  0  0           0  0  0
    6.7917   -2.3875    0.0000 O   0  0  0  0  0  0           0  0  0
    3.9412   -3.1904    0.0000 C   0  0  0  0  0  0           0  0  0
    3.2250   -3.6064    0.0000 C   0  0  0  0  0  0           0  0  0
    3.2255   -4.4347    0.0000 C   0  0  0  0  0  0           0  0  0
    3.9482   -4.8495    0.0000 C   0  0  0  0  0  0           0  0  0
    4.6614   -4.4312    0.0000 C   0  0  0  0  0  0           0  0  0
    6.7959   -3.1959    0.0000 C   0  0  0  0  0  0           0  0  0
    7.5229   -4.4375    0.0000 O   0  0  0  0  0  0           0  0  0
  1  2  1  0     0  0
  1  8  2  0     0  0
 13  4  1  0     0  0
  8  9  1  0     0  0
  9 10  2  0     0  0
  4  5  1  0     0  0
 10 11  1  0     0  0
  2  3  1  0     0  0
 11 12  2  0     0  0
 12  1  1  0     0  0
  2  6  2  0     0  0
  7 13  2  0     0  0
  3 13  1  0     0  0
  4 14  2  0     0  0
M  END
>  <prID>
487

>  <IDDB>
122862

>  <pIC50_HIV_Integrase>
4.244125144

>  <Q>
-0.541754549

>  <Activity_Integrase>
Inactive_Integrase

NA
NA
NA
NA
$$$$

  Accelrys05311914312D 1   1.00000     0.00000     0

 22 22  0     0  0            999 V2000
    4.6530   -1.7271    0.0000 C   0  0  0  0  0  0           0  0  0
    5.3697   -1.3104    0.0000 C   0  0  0  0  0  0           0  0  0
    6.7989   -1.3104    0.0000 C   0  0  0  0  0  0           0  0  0
    7.5155   -1.7271    0.0000 O   0  0  0  0  0  0           0  0  0
    4.6530   -2.5562    0.0000 O   0  0  0  0  0  0           0  0  0
    6.0697   -2.5353    0.0000 O   0  0  0  0  0  0           0  0  0
    6.0739   -1.7271    0.0000 C   0  0  0  0  0  0           0  0  0
    6.8010   -0.4812    0.0000 O   0  0  0  0  0  0           0  0  0
    3.9364   -1.3104    0.0000 C   0  0  0  0  0  0           0  0  0
    1.7833   -0.0730    0.0000 C   0  0  0  0  0  0           0  0  0
    1.0666   -0.4855    0.0000 C   0  0  0  0  0  0           0  0  0
   -0.3626   -0.4855    0.0000 C   0  0  0  0  0  0           0  0  0
   -1.0792   -0.0730    0.0000 O   0  0  0  0  0  0           0  0  0
    1.7833    0.7561    0.0000 O   0  0  0  0  0  0           0  0  0
    0.3666    0.7352    0.0000 O   0  0  0  0  0  0           0  0  0
    0.3625   -0.0730    0.0000 C   0  0  0  0  0  0           0  0  0
   -0.3647   -1.3147    0.0000 O   0  0  0  0  0  0           0  0  0
    2.4999   -0.4855    0.0000 C   0  0  0  0  0  0           0  0  0
    3.9334   -0.4875    0.0000 C   0  0  0  0  0  0           0  0  0
    3.2161   -0.0737    0.0000 C   0  0  0  0  0  0           0  0  0
    2.5005   -1.3139    0.0000 C   0  0  0  0  0  0           0  0  0
    3.2232   -1.7287    0.0000 C   0  0  0  0  0  0           0  0  0
 11 16  1  0     0  0
  1  5  2  0     0  0
 16 12  1  0     0  0
  2  7  1  0     0  0
 12 13  1  0     0  0
  9  1  1  0     0  0
 10 14  2  0     0  0
  6  7  2  0     0  0
  7  3  1  0     0  0
 15 16  2  0     0  0
  3  8  2  0     0  0
 12 17  2  0     0  0
  3  4  1  0     0  0
 18 10  1  0     0  0
 19 20  2  0     0  0
 20 18  1  0     0  0
  1  2  1  0     0  0
 18 21  2  0     0  0
 10 11  1  0     0  0
 21 22  1  0     0  0
 22  9  2  0     0  0
  9 19  1  0     0  0
M  END
>  <prID>
488

>  <IDDB>
122864

>  <pIC50_HIV_Integrase>
5.89279003

>  <Q>
-1.940142851

>  <Activity_Integrase>
Inactive_Integrase

NA
NA
NA
NA
$$$$

  Accelrys05311914312D 1   1.00000     0.00000     0

 26 27  0     0  0            999 V2000
    7.1822   -2.5729    0.0000 C   0  0  0  0  0  0           0  0  0
    7.8989   -2.9854    0.0000 C   0  0  0  0  0  0           0  0  0
    9.3280   -2.9854    0.0000 C   0  0  0  0  0  0           0  0  0
   10.0447   -2.5729    0.0000 O   0  0  0  0  0  0           0  0  0
    7.1822   -1.7438    0.0000 O   0  0  0  0  0  0           0  0  0
    8.5989   -1.7647    0.0000 O   0  0  0  0  0  0           0  0  0
    8.6031   -2.5729    0.0000 C   0  0  0  0  0  0           0  0  0
    9.3301   -3.8146    0.0000 O   0  0  0  0  0  0           0  0  0
    6.4625   -2.9875    0.0000 C   0  0  0  0  0  0           0  0  0
    4.3124   -2.5730    0.0000 C   0  0  0  0  0  0           0  0  0
    3.5958   -2.9855    0.0000 C   0  0  0  0  0  0           0  0  0
    2.1666   -2.9855    0.0000 C   0  0  0  0  0  0           0  0  0
    1.4499   -2.5730    0.0000 O   0  0  0  0  0  0           0  0  0
    4.3124   -1.7439    0.0000 O   0  0  0  0  0  0           0  0  0
    2.8958   -1.7648    0.0000 O   0  0  0  0  0  0           0  0  0
    2.8917   -2.5730    0.0000 C   0  0  0  0  0  0           0  0  0
    2.1645   -3.8147    0.0000 O   0  0  0  0  0  0           0  0  0
    5.0291   -2.9855    0.0000 C   0  0  0  0  0  0           0  0  0
    5.7453   -2.5737    0.0000 C   0  0  0  0  0  0           0  0  0
    6.4641   -3.8066    0.0000 N   0  0  0  0  0  0           0  0  0
    5.7524   -4.2287    0.0000 C   0  0  0  0  0  0           0  0  0
    5.0340   -3.8129    0.0000 C   0  0  0  0  0  0           0  0  0
    4.3183   -4.2296    0.0000 C   0  0  0  0  0  0           0  0  0
    4.3198   -5.0578    0.0000 C   0  0  0  0  0  0           0  0  0
    5.0429   -5.4676    0.0000 C   0  0  0  0  0  0           0  0  0
    5.7556   -5.0527    0.0000 C   0  0  0  0  0  0           0  0  0
 12 13  1  0     0  0
  9  1  1  0     0  0
 10 14  2  0     0  0
  6  7  2  0     0  0
  7  3  1  0     0  0
 15 16  2  0     0  0
  3  8  2  0     0  0
 12 17  2  0     0  0
  3  4  1  0     0  0
  9 19  2  0     0  0
 19 18  1  0     0  0
 18 22  2  0     0  0
 21 20  2  0     0  0
 18 10  1  0     0  0
  9 20  1  0     0  0
  1  2  1  0     0  0
 10 11  1  0     0  0
 21 22  1  0     0  0
 11 16  1  0     0  0
 22 23  1  0     0  0
  1  5  2  0     0  0
 23 24  2  0     0  0
 16 12  1  0     0  0
 24 25  1  0     0  0
  2  7  1  0     0  0
 25 26  2  0     0  0
 26 21  1  0     0  0
M  END
>  <prID>
489

>  <IDDB>
122865

>  <pIC50_HIV_Integrase>
5.187086643

>  <Q>
-2.127897926

>  <Activity_Integrase>
Inactive_Integrase

NA
NA
NA
NA
$$$$

  Accelrys05311914312D 1   1.00000     0.00000     0

 20 21  0     0  0            999 V2000
    4.0485   -5.1583    0.0000 C   0  0  0  0  0  0           0  0  0
    4.0474   -5.9856    0.0000 C   0  0  0  0  0  0           0  0  0
    4.7622   -6.3985    0.0000 C   0  0  0  0  0  0           0  0  0
    4.7604   -4.7455    0.0000 C   0  0  0  0  0  0           0  0  0
    5.4758   -5.1546    0.0000 C   0  0  0  0  0  0           0  0  0
    5.4806   -5.9811    0.0000 C   0  0  0  0  0  0           0  0  0
    6.2681   -6.2319    0.0000 N   0  0  0  0  0  0           0  0  0
    6.7500   -5.5604    0.0000 C   0  0  0  0  0  0           0  0  0
    6.2603   -4.8947    0.0000 C   0  0  0  0  0  0           0  0  0
    3.3340   -4.7459    0.0000 Cl  0  0  0  0  0  0           0  0  0
    6.5106   -4.1086    0.0000 C   0  0  0  0  0  0           0  0  0
    7.3166   -3.9324    0.0000 C   0  0  0  0  0  0           0  0  0
    5.9550   -3.4988    0.0000 O   0  0  0  0  0  0           0  0  0
    7.5669   -3.1462    0.0000 C   0  0  0  0  0  0           0  0  0
    8.3728   -2.9700    0.0000 O   0  0  0  0  0  0           0  0  0
    7.0113   -2.5364    0.0000 C   0  0  0  0  0  0           0  0  0
    7.2616   -1.7503    0.0000 O   0  0  0  0  0  0           0  0  0
    6.2053   -2.7127    0.0000 O   0  0  0  0  0  0           0  0  0
    8.0675   -1.5740    0.0000 C   0  0  0  0  0  0           0  0  0
    8.3179   -0.7879    0.0000 C   0  0  0  0  0  0           0  0  0
  4  1  1  0     0  0
  1 10  1  0     0  0
  5  6  1  0     0  0
  9 11  1  0     0  0
 11 12  1  0     0  0
  2  3  1  0     0  0
 11 13  2  0     0  0
  3  6  2  0     0  0
 12 14  1  0     0  0
  1  2  2  0     0  0
 14 15  2  0     0  0
  5  4  2  0     0  0
 14 16  1  0     0  0
  6  7  1  0     0  0
 16 17  1  0     0  0
  7  8  1  0     0  0
 16 18  2  0     0  0
  8  9  2  0     0  0
 17 19  1  0     0  0
  9  5  1  0     0  0
 19 20  1  0     0  0
M  END
>  <prID>
490

>  <IDDB>
122866

>  <pIC50_HIV_Integrase>
5.161150909

>  <Q>
-1.900967142

>  <Activity_Integrase>
Inactive_Integrase

NA
NA
NA
NA
$$$$

  Accelrys05311914312D 1   1.00000     0.00000     0

 17 18  0     0  0            999 V2000
    3.5694   -4.6916    0.0000 C   0  0  0  0  0  0           0  0  0
    3.5682   -5.5190    0.0000 C   0  0  0  0  0  0           0  0  0
    4.2830   -5.9318    0.0000 C   0  0  0  0  0  0           0  0  0
    4.2812   -4.2788    0.0000 C   0  0  0  0  0  0           0  0  0
    4.9966   -4.6880    0.0000 C   0  0  0  0  0  0           0  0  0
    5.0014   -5.5144    0.0000 C   0  0  0  0  0  0           0  0  0
    5.7889   -5.7652    0.0000 N   0  0  0  0  0  0           0  0  0
    6.2709   -5.0937    0.0000 C   0  0  0  0  0  0           0  0  0
    5.7811   -4.4280    0.0000 C   0  0  0  0  0  0           0  0  0
    6.0314   -3.6419    0.0000 C   0  0  0  0  0  0           0  0  0
    6.8374   -3.4657    0.0000 C   0  0  0  0  0  0           0  0  0
    5.4758   -3.0321    0.0000 O   0  0  0  0  0  0           0  0  0
    7.0877   -2.6796    0.0000 C   0  0  0  0  0  0           0  0  0
    7.8937   -2.5033    0.0000 O   0  0  0  0  0  0           0  0  0
    6.5321   -2.0697    0.0000 C   0  0  0  0  0  0           0  0  0
    6.7824   -1.2836    0.0000 O   0  0  0  0  0  0           0  0  0
    5.7261   -2.2460    0.0000 O   0  0  0  0  0  0           0  0  0
  7  8  1  0     0  0
  8  9  2  0     0  0
  9  5  1  0     0  0
  4  1  1  0     0  0
  9 10  1  0     0  0
  5  6  1  0     0  0
 10 11  1  0     0  0
 10 12  2  0     0  0
  2  3  1  0     0  0
 11 13  1  0     0  0
  3  6  2  0     0  0
 13 14  2  0     0  0
  1  2  2  0     0  0
 13 15  1  0     0  0
  5  4  2  0     0  0
 15 16  1  0     0  0
  6  7  1  0     0  0
 15 17  2  0     0  0
M  END
>  <prID>
491

>  <IDDB>
122867

>  <pIC50_HIV_Integrase>
4.821023053

>  <Q>
-1.077963466

>  <Activity_Integrase>
Inactive_Integrase

NA
NA
NA
NA
$$$$

  Accelrys05311914312D 1   1.00000     0.00000     0

 29 32  0     0  0            999 V2000
    3.0163   -3.5750    0.0000 C   0  0  0  0  0  0           0  0  0
    3.8455   -3.5768    0.0000 C   0  0  0  0  0  0           0  0  0
    4.2564   -4.2964    0.0000 C   0  0  0  0  0  0           0  0  0
    4.2595   -2.8591    0.0000 O   0  0  0  0  0  0           0  0  0
    5.0855   -4.2982    0.0000 C   0  0  0  0  0  0           0  0  0
    5.5038   -3.5805    0.0000 O   0  0  0  0  0  0           0  0  0
    5.5006   -5.0178    0.0000 C   0  0  0  0  0  0           0  0  0
    5.1639   -5.7763    0.0000 N   0  0  0  0  0  0           0  0  0
    5.7810   -6.3324    0.0000 N   0  0  0  0  0  0           0  0  0
    6.5006   -5.9173    0.0000 N   0  0  0  0  0  0           0  0  0
    6.3281   -5.1047    0.0000 N   0  0  3  0  0  0           0  0  0
    6.8802   -4.4917    0.0000 C   0  0  0  0  0  0           0  0  0
    7.6872   -4.6633    0.0000 C   0  0  0  0  0  0           0  0  0
    7.9397   -5.4489    0.0000 C   0  0  0  0  0  0           0  0  0
    8.7459   -5.6207    0.0000 C   0  0  0  0  0  0           0  0  0
    9.2989   -5.0074    0.0000 C   0  0  0  0  0  0           0  0  0
    9.0402   -4.2195    0.0000 C   0  0  0  0  0  0           0  0  0
    8.2347   -4.0514    0.0000 C   0  0  0  0  0  0           0  0  0
   10.1061   -5.1779    0.0000 O   0  0  0  0  0  0           0  0  0
   10.3619   -5.9622    0.0000 C   0  0  0  0  0  0           0  0  0
    1.7382   -3.9930    0.0000 N   0  0  0  0  0  0           0  0  0
    2.5262   -4.2508    0.0000 C   0  0  0  0  0  0           0  0  0
    1.7400   -3.1638    0.0000 C   0  0  0  0  0  0           0  0  0
    2.5273   -2.9126    0.0000 C   0  0  0  0  0  0           0  0  0
    2.7021   -2.1069    0.0000 C   0  0  0  0  0  0           0  0  0
    2.0905   -1.5515    0.0000 C   0  0  0  0  0  0           0  0  0
    1.3015   -1.8074    0.0000 C   0  0  0  0  0  0           0  0  0
    1.1304   -2.6125    0.0000 C   0  0  0  0  0  0           0  0  0
    2.2640   -0.7449    0.0000 Cl  0  0  0  0  0  0           0  0  0
  7  8  2  0     0  0
 14 15  1  0     0  0
  2  4  2  0     0  0
 15 16  2  0     0  0
 16 17  1  0     0  0
  3  5  1  0     0  0
 17 18  2  0     0  0
 18 13  1  0     0  0
  2  3  1  0     0  0
 16 19  1  0     0  0
  8  9  1  0     0  0
 19 20  1  0     0  0
  1 24  1  0     0  0
  9 10  2  0     0  0
 10 11  1  0     0  0
 23 21  1  0     0  0
 21 22  1  0     0  0
 22  1  2  0     0  0
 11  7  1  0     0  0
  5  6  2  0     0  0
 23 24  2  0     0  0
 11 12  1  0     0  0
 24 25  1  0     0  0
  1  2  1  0     0  0
 25 26  2  0     0  0
 12 13  1  0     0  0
 26 27  1  0     0  0
  5  7  1  0     0  0
 27 28  2  0     0  0
 28 23  1  0     0  0
 13 14  2  0     0  0
 26 29  1  0     0  0
M  END
>  <prID>
492

>  <IDDB>
122872

>  <pIC50_HIV_Integrase>
4.468521083

>  <Q>
-1.817406036

>  <Activity_Integrase>
Inactive_Integrase

NA
NA
NA
NA
$$$$

  Accelrys05311914312D 1   1.00000     0.00000     0

 19 21  0     0  0            999 V2000
    4.9413   -3.1584    0.0000 C   0  0  0  0  0  0           0  0  0
    5.7705   -3.1602    0.0000 C   0  0  0  0  0  0           0  0  0
    6.1814   -3.8797    0.0000 C   0  0  0  0  0  0           0  0  0
    6.1845   -2.4425    0.0000 O   0  0  0  0  0  0           0  0  0
    7.0105   -3.8816    0.0000 C   0  0  0  0  0  0           0  0  0
    7.4288   -3.1639    0.0000 O   0  0  0  0  0  0           0  0  0
    7.4256   -4.6011    0.0000 C   0  0  0  0  0  0           0  0  0
    7.0889   -5.3597    0.0000 N   0  0  0  0  0  0           0  0  0
    7.7060   -5.9158    0.0000 N   0  0  0  0  0  0           0  0  0
    8.4256   -5.5007    0.0000 N   0  0  0  0  0  0           0  0  0
    8.2531   -4.6881    0.0000 N   0  0  0  0  0  0           0  0  0
    3.6632   -3.5763    0.0000 N   0  0  0  0  0  0           0  0  0
    4.4512   -3.8342    0.0000 C   0  0  0  0  0  0           0  0  0
    3.6650   -2.7471    0.0000 C   0  0  0  0  0  0           0  0  0
    4.4523   -2.4960    0.0000 C   0  0  0  0  0  0           0  0  0
    4.6271   -1.6903    0.0000 C   0  0  0  0  0  0           0  0  0
    4.0155   -1.1348    0.0000 C   0  0  0  0  0  0           0  0  0
    3.2265   -1.3907    0.0000 C   0  0  0  0  0  0           0  0  0
    3.0554   -2.1959    0.0000 C   0  0  0  0  0  0           0  0  0
  8  9  1  0     0  0
  9 10  2  0     0  0
 10 11  1  0     0  0
 11  7  1  0     0  0
  1 15  1  0     0  0
  5  6  2  0     0  0
  1  2  1  0     0  0
 14 12  1  0     0  0
 12 13  1  0     0  0
 13  1  2  0     0  0
  5  7  1  0     0  0
  7  8  2  0     0  0
 14 15  2  0     0  0
  2  4  2  0     0  0
 15 16  1  0     0  0
 16 17  2  0     0  0
  3  5  1  0     0  0
 17 18  1  0     0  0
  2  3  1  0     0  0
 18 19  2  0     0  0
 19 14  1  0     0  0
M  END
>  <prID>
493

>  <IDDB>
122873

>  <pIC50_HIV_Integrase>
5.721246399

>  <Q>
-1.885672535

>  <Activity_Integrase>
Inactive_Integrase

NA
NA
NA
NA
$$$$

  Accelrys05311914312D 1   1.00000     0.00000     0

 20 22  0     0  0            999 V2000
    4.9413   -3.5750    0.0000 C   0  0  0  0  0  0           0  0  0
    5.7705   -3.5768    0.0000 C   0  0  0  0  0  0           0  0  0
    6.1814   -4.2964    0.0000 C   0  0  0  0  0  0           0  0  0
    6.1845   -2.8591    0.0000 O   0  0  0  0  0  0           0  0  0
    7.0105   -4.2982    0.0000 C   0  0  0  0  0  0           0  0  0
    7.4288   -3.5805    0.0000 O   0  0  0  0  0  0           0  0  0
    7.4256   -5.0178    0.0000 C   0  0  0  0  0  0           0  0  0
    7.0889   -5.7763    0.0000 N   0  0  0  0  0  0           0  0  0
    7.7060   -6.3324    0.0000 N   0  0  0  0  0  0           0  0  0
    8.4256   -5.9173    0.0000 N   0  0  0  0  0  0           0  0  0
    8.2531   -5.1047    0.0000 N   0  0  0  0  0  0           0  0  0
    3.6632   -3.9930    0.0000 N   0  0  0  0  0  0           0  0  0
    4.4512   -4.2508    0.0000 C   0  0  0  0  0  0           0  0  0
    3.6650   -3.1638    0.0000 C   0  0  0  0  0  0           0  0  0
    4.4523   -2.9126    0.0000 C   0  0  0  0  0  0           0  0  0
    4.6271   -2.1069    0.0000 C   0  0  0  0  0  0           0  0  0
    4.0155   -1.5515    0.0000 C   0  0  0  0  0  0           0  0  0
    3.2265   -1.8074    0.0000 C   0  0  0  0  0  0           0  0  0
    3.0554   -2.6125    0.0000 C   0  0  0  0  0  0           0  0  0
    4.1890   -0.7449    0.0000 F   0  0  0  0  0  0           0  0  0
  9 10  2  0     0  0
 10 11  1  0     0  0
 11  7  1  0     0  0
  1 15  1  0     0  0
  5  6  2  0     0  0
  1  2  1  0     0  0
 14 12  1  0     0  0
 12 13  1  0     0  0
 13  1  2  0     0  0
  5  7  1  0     0  0
  7  8  2  0     0  0
 14 15  2  0     0  0
  2  4  2  0     0  0
 15 16  1  0     0  0
 16 17  2  0     0  0
  3  5  1  0     0  0
 17 18  1  0     0  0
  2  3  1  0     0  0
 18 19  2  0     0  0
 19 14  1  0     0  0
  8  9  1  0     0  0
 17 20  1  0     0  0
M  END
>  <prID>
494

>  <IDDB>
122875

>  <pIC50_HIV_Integrase>
5.744727495

>  <Q>
-4.382982648

>  <Activity_Integrase>
Inactive_Integrase

NA
NA
NA
NA
$$$$

  Accelrys05311914332D 1   1.00000     0.00000     0

 22 24  0     0  0            999 V2000
    4.9413   -3.8542    0.0000 C   0  0  0  0  0  0           0  0  0
    5.7705   -3.8560    0.0000 C   0  0  0  0  0  0           0  0  0
    6.1814   -4.5755    0.0000 C   0  0  0  0  0  0           0  0  0
    6.1845   -3.1383    0.0000 O   0  0  0  0  0  0           0  0  0
    7.0105   -4.5774    0.0000 C   0  0  0  0  0  0           0  0  0
    7.4288   -3.8597    0.0000 O   0  0  0  0  0  0           0  0  0
    7.4256   -5.2969    0.0000 C   0  0  0  0  0  0           0  0  0
    7.0889   -6.0555    0.0000 N   0  0  0  0  0  0           0  0  0
    7.7060   -6.6116    0.0000 N   0  0  0  0  0  0           0  0  0
    8.4256   -6.1965    0.0000 N   0  0  0  0  0  0           0  0  0
    8.2531   -5.3839    0.0000 N   0  0  0  0  0  0           0  0  0
    3.6632   -4.2721    0.0000 N   0  0  0  0  0  0           0  0  0
    4.4512   -4.5300    0.0000 C   0  0  0  0  0  0           0  0  0
    3.6650   -3.4429    0.0000 C   0  0  0  0  0  0           0  0  0
    4.4523   -3.1918    0.0000 C   0  0  0  0  0  0           0  0  0
    4.6271   -2.3861    0.0000 C   0  0  0  0  0  0           0  0  0
    4.0155   -1.8306    0.0000 C   0  0  0  0  0  0           0  0  0
    3.2265   -2.0865    0.0000 C   0  0  0  0  0  0           0  0  0
    3.0554   -2.8917    0.0000 C   0  0  0  0  0  0           0  0  0
    4.1890   -1.0241    0.0000 C   0  0  0  0  0  0           0  0  0
    4.9742   -0.7710    0.0000 O   0  0  0  0  0  0           0  0  0
    3.5772   -0.4706    0.0000 O   0  0  0  0  0  0           0  0  0
 11  7  1  0     0  0
  1 15  1  0     0  0
  5  6  2  0     0  0
  1  2  1  0     0  0
 14 12  1  0     0  0
 12 13  1  0     0  0
 13  1  2  0     0  0
  5  7  1  0     0  0
  7  8  2  0     0  0
 14 15  2  0     0  0
  2  4  2  0     0  0
 15 16  1  0     0  0
 16 17  2  0     0  0
  3  5  1  0     0  0
 17 18  1  0     0  0
  2  3  1  0     0  0
 18 19  2  0     0  0
 19 14  1  0     0  0
  8  9  1  0     0  0
 17 20  1  0     0  0
  9 10  2  0     0  0
 20 21  1  0     0  0
 10 11  1  0     0  0
 20 22  2  0     0  0
M  END
>  <prID>
495

>  <IDDB>
122876

>  <pIC50_HIV_Integrase>
4.397940009

>  <Q>
-2.801704517

>  <Activity_Integrase>
Inactive_Integrase

NA
NA
NA
NA
$$$$

  Accelrys05311914312D 1   1.00000     0.00000     0

 24 27  0     0  0            999 V2000
    3.2704   -6.4167    0.0000 O   0  0  0  0  0  0           0  0  0
    3.2704   -4.7667    0.0000 C   0  0  3  0  0  0           0  0  0
    3.2704   -3.9417    0.0000 C   0  0  0  0  0  0           0  0  0
    3.9869   -3.5306    0.0000 C   0  0  0  0  0  0           0  0  0
    3.9873   -2.7064    0.0000 C   0  0  0  0  0  0           0  0  0
    3.2722   -2.2931    0.0000 C   0  0  0  0  0  0           0  0  0
    2.5554   -2.7100    0.0000 C   0  0  0  0  0  0           0  0  0
    2.5586   -3.5329    0.0000 C   0  0  0  0  0  0           0  0  0
    2.5583   -6.0083    0.0000 C   0  0  0  0  0  0           0  0  0
    2.5609   -5.1852    0.0000 C   0  0  0  0  0  0           0  0  0
    1.8504   -4.7732    0.0000 C   0  0  0  0  0  0           0  0  0
    1.1369   -5.1832    0.0000 N   0  0  0  0  0  0           0  0  0
    1.1383   -6.0095    0.0000 C   0  0  0  0  0  0           0  0  0
    1.8494   -6.4178    0.0000 N   0  0  0  0  0  0           0  0  0
    3.9824   -5.1833    0.0000 C   0  0  0  0  0  0           0  0  0
    3.9808   -6.0065    0.0000 C   0  0  0  0  0  0           0  0  0
    4.6917   -6.4177    0.0000 N   0  0  0  0  0  0           0  0  0
    5.4048   -6.0068    0.0000 C   0  0  0  0  0  0           0  0  0
    5.4024   -5.1805    0.0000 N   0  0  0  0  0  0           0  0  0
    4.6908   -4.7731    0.0000 C   0  0  0  0  0  0           0  0  0
    0.4247   -6.4235    0.0000 O   0  0  0  0  0  0           0  0  0
    6.1196   -6.4186    0.0000 O   0  0  0  0  0  0           0  0  0
    1.8521   -3.9482    0.0000 O   0  0  0  0  0  0           0  0  0
    4.6888   -3.9481    0.0000 O   0  0  0  0  0  0           0  0  0
 10 11  1  0     0  0
  9  1  1  0     0  0
 11 12  2  0     0  0
  4  5  1  0     0  0
 12 13  1  0     0  0
  1 16  1  0     0  0
 13 14  2  0     0  0
 14  9  1  0     0  0
  5  6  2  0     0  0
 15  2  1  0     0  0
 15 16  2  0     0  0
  6  7  1  0     0  0
 16 17  1  0     0  0
 17 18  2  0     0  0
  7  8  2  0     0  0
 18 19  1  0     0  0
  8  3  1  0     0  0
 19 20  2  0     0  0
 20 15  1  0     0  0
  2  3  1  0     0  0
 13 21  1  0     0  0
 10  2  1  0     0  0
 18 22  1  0     0  0
  9 10  2  0     0  0
 11 23  1  0     0  0
  3  4  2  0     0  0
 20 24  1  0     0  0
M  END
>  <prID>
496

>  <IDDB>
122881

>  <pIC50_HIV_Integrase>
3.106793247

>  <Q>
-3.945326533

>  <Activity_Integrase>
Inactive_Integrase

NA
NA
NA
NA
$$$$

  Accelrys05311914312D 1   1.00000     0.00000     0

 25 28  0     0  0            999 V2000
    3.2704   -6.4167    0.0000 O   0  0  0  0  0  0           0  0  0
    3.2704   -4.7667    0.0000 C   0  0  3  0  0  0           0  0  0
    3.2704   -3.9417    0.0000 C   0  0  0  0  0  0           0  0  0
    3.9869   -3.5306    0.0000 C   0  0  0  0  0  0           0  0  0
    3.9873   -2.7064    0.0000 C   0  0  0  0  0  0           0  0  0
    3.2722   -2.2931    0.0000 C   0  0  0  0  0  0           0  0  0
    2.5554   -2.7100    0.0000 C   0  0  0  0  0  0           0  0  0
    2.5583   -6.0083    0.0000 C   0  0  0  0  0  0           0  0  0
    2.5609   -5.1852    0.0000 C   0  0  0  0  0  0           0  0  0
    1.8504   -4.7732    0.0000 C   0  0  0  0  0  0           0  0  0
    1.1369   -5.1832    0.0000 N   0  0  0  0  0  0           0  0  0
    1.1383   -6.0095    0.0000 C   0  0  0  0  0  0           0  0  0
    1.8494   -6.4178    0.0000 N   0  0  0  0  0  0           0  0  0
    3.9824   -5.1833    0.0000 C   0  0  0  0  0  0           0  0  0
    3.9808   -6.0065    0.0000 C   0  0  0  0  0  0           0  0  0
    4.6917   -6.4177    0.0000 N   0  0  0  0  0  0           0  0  0
    5.4048   -6.0068    0.0000 C   0  0  0  0  0  0           0  0  0
    5.4024   -5.1805    0.0000 N   0  0  0  0  0  0           0  0  0
    4.6908   -4.7731    0.0000 C   0  0  0  0  0  0           0  0  0
    0.4247   -6.4235    0.0000 S   0  0  0  0  0  0           0  0  0
    6.1196   -6.4186    0.0000 S   0  0  0  0  0  0           0  0  0
    1.8521   -3.9482    0.0000 O   0  0  0  0  0  0           0  0  0
    4.6888   -3.9481    0.0000 O   0  0  0  0  0  0           0  0  0
    2.5673   -3.5371    0.0000 C   0  0  0  0  0  0           0  0  0
    3.2711   -1.4681    0.0000 Cl  0  0  0  0  0  0           0  0  0
 10 11  2  0     0  0
  8  1  1  0     0  0
 11 12  1  0     0  0
  4  5  1  0     0  0
 12 13  2  0     0  0
 13  8  1  0     0  0
  1 15  1  0     0  0
  5  6  2  0     0  0
 14 15  2  0     0  0
 14  2  1  0     0  0
 15 16  1  0     0  0
  6  7  1  0     0  0
 16 17  2  0     0  0
  7 24  2  0     0  0
 17 18  1  0     0  0
 24  3  1  0     0  0
 18 19  2  0     0  0
 19 14  1  0     0  0
 12 20  1  0     0  0
  2  3  1  0     0  0
 17 21  1  0     0  0
  8  9  2  0     0  0
 10 22  1  0     0  0
  9  2  1  0     0  0
 19 23  1  0     0  0
  9 10  1  0     0  0
  3  4  2  0     0  0
  6 25  1  0     0  0
M  END
>  <prID>
497

>  <IDDB>
122885

>  <pIC50_HIV_Integrase>
3.696156225

>  <Q>
-0.496818507

>  <Activity_Integrase>
Inactive_Integrase

NA
NA
NA
NA
$$$$

  Accelrys05311914312D 1   1.00000     0.00000     0

 16 17  0     0  0            999 V2000
    5.3411   -9.5032    0.0000 C   0  0  0  0  0  0           0  0  0
    6.0617   -9.0896    0.0000 N   0  0  0  0  0  0           0  0  0
    6.7795   -9.5100    0.0000 C   0  0  0  0  0  0           0  0  0
    5.3405  -10.3291    0.0000 O   0  0  0  0  0  0           0  0  0
    4.6412   -9.0965    0.0000 C   0  0  0  0  0  0           0  0  0
    7.4927   -9.1073    0.0000 C   0  0  0  0  0  0           0  0  0
    7.5036   -8.2756    0.0000 S   0  0  0  0  0  0           0  0  0
    6.7730  -10.3256    0.0000 C   0  0  0  0  0  0           0  0  0
    4.6436   -8.2798    0.0000 C   0  0  0  0  0  0           0  0  0
    3.9257   -9.5072    0.0000 C   0  0  0  0  0  0           0  0  0
    8.1944   -9.5232    0.0000 C   0  0  0  0  0  0           0  0  0
    7.4867  -10.7448    0.0000 C   0  0  0  0  0  0           0  0  0
    3.2177   -9.0982    0.0000 C   0  0  0  0  0  0           0  0  0
    3.9317   -7.8696    0.0000 C   0  0  0  0  0  0           0  0  0
    8.1846  -10.3508    0.0000 C   0  0  0  0  0  0           0  0  0
    3.2133   -8.2752    0.0000 C   0  0  0  0  0  0           0  0  0
  2  1  1  0     0  0
  3  2  1  0     0  0
  4  1  2  0     0  0
  5  1  1  0     0  0
  6  3  2  0     0  0
  7  6  1  0     0  0
  8  3  1  0     0  0
  9  5  1  0     0  0
 10  5  2  0     0  0
 11  6  1  0     0  0
 12  8  2  0     0  0
 13 10  1  0     0  0
 14  9  2  0     0  0
 15 12  1  0     0  0
 16 13  2  0     0  0
 14 16  1  0     0  0
 11 15  2  0     0  0
M  END
>  <prID>
498

>  <IDDB>
124992

>  <pIC50_HIV_Integrase>
3.6789161825

>  <Q>
2.145633497

>  <Activity_Integrase>
Inactive_Integrase

NA
NA
NA
NA
$$$$

  Accelrys05311914312D 1   1.00000     0.00000     0

 17 18  0     0  0            999 V2000
    1.0553   -0.8607    0.0000 C   0  0  0  0  0  0           0  0  0
    1.0542   -0.0333    0.0000 C   0  0  0  0  0  0           0  0  0
    1.7690    0.3795    0.0000 C   0  0  0  0  0  0           0  0  0
    2.4854   -0.0338    0.0000 C   0  0  0  0  0  0           0  0  0
    2.4826   -0.8643    0.0000 C   0  0  0  0  0  0           0  0  0
    1.7672   -1.2735    0.0000 C   0  0  0  0  0  0           0  0  0
    2.4875   -3.3333    0.0000 C   0  0  0  0  0  0           0  0  0
    2.4875   -2.5083    0.0000 C   0  0  0  0  0  0           0  0  0
    1.0569   -3.3334    0.0000 C   0  0  0  0  0  0           0  0  0
    1.0557   -2.5060    0.0000 C   0  0  0  0  0  0           0  0  0
    1.7706   -2.0931    0.0000 C   0  0  0  0  0  0           0  0  0
    1.7688   -3.7461    0.0000 C   0  0  0  0  0  0           0  0  0
    3.2000   -2.0958    0.0000 C   0  0  0  0  0  0           0  0  0
    3.1958   -1.2708    0.0000 N   0  0  3  0  0  0           0  0  0
    3.9125   -2.5125    0.0000 O   0  0  0  0  0  0           0  0  0
    3.9083   -0.8542    0.0000 C   0  0  0  0  0  0           0  0  0
    3.2000   -3.7458    0.0000 S   0  0  0  0  0  0           0  0  0
  4  5  1  0     0  0
  9 10  2  0     0  0
  2  3  1  0     0  0
 10 11  1  0     0  0
 11  8  2  0     0  0
  5  6  2  0     0  0
  7 12  2  0     0  0
 12  9  1  0     0  0
  6  1  1  0     0  0
  8 13  1  0     0  0
  7  8  1  0     0  0
 13 14  1  0     0  0
  1  2  2  0     0  0
 13 15  2  0     0  0
 14  5  1  0     0  0
  3  4  2  0     0  0
 14 16  1  0     0  0
  7 17  1  0     0  0
M  END
>  <prID>
499

>  <IDDB>
125940

>  <pIC50_HIV_Integrase>
3.221246399

>  <Q>
3.148784879

>  <Activity_Integrase>
Inactive_Integrase

NA
NA
NA
NA
$$$$

  Accelrys05311914312D 1   1.00000     0.00000     0

 14 14  0     0  0            999 V2000
    4.1083   -4.1750    0.0000 C   0  0  0  0  0  0           0  0  0
    4.1083   -3.3500    0.0000 C   0  0  0  0  0  0           0  0  0
    2.6777   -4.1750    0.0000 C   0  0  0  0  0  0           0  0  0
    2.6766   -3.3477    0.0000 C   0  0  0  0  0  0           0  0  0
    3.3914   -2.9348    0.0000 C   0  0  0  0  0  0           0  0  0
    3.3896   -4.5878    0.0000 C   0  0  0  0  0  0           0  0  0
    4.8208   -2.9375    0.0000 C   0  0  0  0  0  0           0  0  0
    4.8042   -2.1542    0.0000 O   0  0  0  0  0  0           0  0  0
    5.5333   -3.3500    0.0000 O   0  0  0  0  0  0           0  0  0
    3.3833   -2.1083    0.0000 F   0  0  0  0  0  0           0  0  0
    1.9583   -2.9333    0.0000 F   0  0  0  0  0  0           0  0  0
    1.9583   -4.5833    0.0000 S   0  0  0  0  0  0           0  0  0
    3.3833   -5.4125    0.0000 F   0  0  0  0  0  0           0  0  0
    4.8208   -4.5875    0.0000 F   0  0  0  0  0  0           0  0  0
  2  7  1  0     0  0
  7  8  2  0     0  0
  4  5  1  0     0  0
  7  9  1  0     0  0
  5  2  2  0     0  0
  5 10  1  0     0  0
  1  2  1  0     0  0
  4 11  1  0     0  0
  1  6  2  0     0  0
  3 12  1  0     0  0
  6  3  1  0     0  0
  6 13  1  0     0  0
  3  4  2  0     0  0
  1 14  1  0     0  0
M  END
>  <prID>
500

>  <IDDB>
127545

>  <pIC50_HIV_Integrase>
3.3933846055

>  <Q>
-8.023852954

>  <Activity_Integrase>
Inactive_Integrase

NA
NA
NA
NA
$$$$

  Accelrys05311914312D 1   1.00000     0.00000     0

 18 19  0     0  0            999 V2000
    5.3092   -2.4649    0.0000 C   0  0  0  0  0  0           0  0  0
    4.5920   -2.8774    0.0000 C   0  0  0  0  0  0           0  0  0
    4.5917   -3.7029    0.0000 C   0  0  0  0  0  0           0  0  0
    5.3078   -4.1169    0.0000 C   0  0  0  0  0  0           0  0  0
    6.0257   -3.6993    0.0000 C   0  0  0  0  0  0           0  0  0
    6.0225   -2.8752    0.0000 C   0  0  0  0  0  0           0  0  0
    1.0172   -2.4882    0.0000 C   0  0  0  0  0  0           0  0  0
    0.3000   -2.9007    0.0000 C   0  0  0  0  0  0           0  0  0
    0.2996   -3.7262    0.0000 C   0  0  0  0  0  0           0  0  0
    1.0157   -4.1401    0.0000 C   0  0  0  0  0  0           0  0  0
    1.7336   -3.7226    0.0000 C   0  0  0  0  0  0           0  0  0
    1.7305   -2.8985    0.0000 C   0  0  0  0  0  0           0  0  0
    1.0256   -1.7173    0.0000 O   0  0  0  0  0  0           0  0  0
    2.4452   -2.4788    0.0000 C   0  0  0  0  0  0           0  0  0
    3.1622   -2.8877    0.0000 C   0  0  0  0  0  0           0  0  0
    3.8747   -2.4717    0.0000 C   0  0  0  0  0  0           0  0  0
    2.4443   -1.6519    0.0000 O   0  0  0  0  0  0           0  0  0
    3.8738   -1.6448    0.0000 O   0  0  0  0  0  0           0  0  0
  4  5  1  0     0  0
  9 10  2  0     0  0
  2  3  1  0     0  0
 10 11  1  0     0  0
  5  6  2  0     0  0
 11 12  2  0     0  0
 12  7  1  0     0  0
  6  1  1  0     0  0
  7 13  1  0     0  0
  1  2  2  0     0  0
 12 14  1  0     0  0
  3  4  2  0     0  0
 14 15  1  0     0  0
  7  8  2  0     0  0
 15 16  1  0     0  0
 16  2  1  0     0  0
 14 17  2  0     0  0
  8  9  1  0     0  0
 16 18  2  0     0  0
M  END
>  <prID>
501

>  <IDDB>
134333

>  <pIC50_HIV_Integrase>
3.477555766

>  <Q>
0.19943069

>  <Activity_Integrase>
Inactive_Integrase

NA
NA
NA
NA
$$$$

  Accelrys05311914312D 1   1.00000     0.00000     0

 19 20  0     0  0            999 V2000
    6.5667    3.0208    0.0000 C   0  0  0  0  0  0           0  0  0
    7.4417    3.5167    0.0000 C   0  0  0  0  0  0           0  0  0
    4.8375    3.0333    0.0000 C   0  0  0  0  0  0           0  0  0
    3.9750    3.5417    0.0000 C   0  0  0  0  0  0           0  0  0
    5.7042    3.5250    0.0000 C   0  0  0  0  0  0           0  0  0
    8.3042    3.0083    0.0000 C   0  0  0  0  0  0           0  0  0
    6.5625    2.0208    0.0000 C   0  0  0  0  0  0           0  0  0
    3.1042    3.0458    0.0000 C   0  0  0  0  0  0           0  0  0
    5.7125    4.5167    0.0000 O   0  0  0  0  0  0           0  0  0
    3.1000    2.0458    0.0000 C   0  0  0  0  0  0           0  0  0
    8.2917    2.0083    0.0000 C   0  0  0  0  0  0           0  0  0
    7.4417    4.5042    0.0000 O   0  0  0  0  0  0           0  0  0
    7.4250    1.5125    0.0000 C   0  0  0  0  0  0           0  0  0
    3.9625    1.5375    0.0000 O   0  0  0  0  0  0           0  0  0
    9.1542    1.5000    0.0000 O   0  0  0  0  0  0           0  0  0
    2.2417    3.5500    0.0000 C   0  0  0  0  0  0           0  0  0
    2.2292    1.5500    0.0000 C   0  0  0  0  0  0           0  0  0
    1.3750    3.0583    0.0000 C   0  0  0  0  0  0           0  0  0
    1.3667    2.0583    0.0000 C   0  0  0  0  0  0           0  0  0
  2  1  1  0     0  0
  3  5  1  0     0  0
  4  3  2  0     0  0
  5  1  1  0     0  0
  6  2  2  0     0  0
  7  1  2  0     0  0
  8  4  1  0     0  0
  9  5  2  0     0  0
 10  8  2  0     0  0
 11 13  2  0     0  0
 12  2  1  0     0  0
 13  7  1  0     0  0
 14 10  1  0     0  0
 15 11  1  0     0  0
 16  8  1  0     0  0
 17 10  1  0     0  0
 18 16  2  0     0  0
 19 18  1  0     0  0
  6 11  1  0     0  0
 17 19  2  0     0  0
M  END
>  <prID>
502

>  <IDDB>
135976

>  <pIC50_HIV_Integrase>
4.0245742705

>  <Q>
-0.788963301

>  <Activity_Integrase>
Inactive_Integrase

NA
NA
NA
NA
$$$$

  Accelrys05311914322D 1   1.00000     0.00000     0

 24 26  0     0  0            999 V2000
    1.2000    0.3083    0.0000 C   0  0  0  0  0  0           0  0  0
   -1.3083    1.2083    0.0000 S   0  0  3  0  0  0           0  0  0
    2.1917   -0.8667    0.0000 N   0  0  3  0  0  0           0  0  0
    3.7042   -0.6000    0.0000 C   0  0  0  0  0  0           0  0  0
    4.2292    0.8500    0.0000 C   0  0  0  0  0  0           0  0  0
   -0.3208    0.0375    0.0000 N   0  0  0  0  0  0           0  0  0
    1.7167    1.7583    0.0000 N   0  0  0  0  0  0           0  0  0
   -2.7083    0.5583    0.0000 C   0  0  0  0  0  0           0  0  0
    3.2375    2.0333    0.0000 C   0  0  0  0  0  0           0  0  0
   -3.9708    1.4333    0.0000 C   0  0  0  0  0  0           0  0  0
   -2.8333   -0.9792    0.0000 C   0  0  0  0  0  0           0  0  0
   -5.3583    0.7750    0.0000 C   0  0  0  0  0  0           0  0  0
    5.5375    2.9708    0.0000 S   0  0  0  0  0  0           0  0  0
    5.6500    1.4333    0.0000 C   0  0  0  0  0  0           0  0  0
   -5.4875   -0.7542    0.0000 C   0  0  0  0  0  0           0  0  0
   -0.0583    2.0958    0.0000 O   0  0  0  0  0  0           0  0  0
   -2.0833    2.5458    0.0000 O   0  0  0  0  0  0           0  0  0
   -4.2250   -1.6292    0.0000 C   0  0  0  0  0  0           0  0  0
    4.0417    3.3375    0.0000 C   0  0  0  0  0  0           0  0  0
    4.7042   -1.7667    0.0000 O   0  0  0  0  0  0           0  0  0
    1.6667   -2.3167    0.0000 N   0  0  0  0  0  0           0  0  0
   -3.8375    2.9708    0.0000 S   0  0  0  0  0  0           0  0  0
   -6.8750   -1.4042    0.0000 Cl  0  0  0  0  0  0           0  0  0
   -4.3583   -3.1625    0.0000 C   0  0  0  0  0  0           0  0  0
  2  6  1  0     0  0
  3  1  1  0     0  0
  4  3  1  0     0  0
  5  9  1  0     0  0
  6  1  1  0     0  0
  7  1  2  0     0  0
  8  2  1  0     0  0
  9  7  1  0     0  0
 10  8  2  0     0  0
 11  8  1  0     0  0
 12 10  1  0     0  0
 13 19  1  0     0  0
 14  5  2  0     0  0
 15 18  1  0     0  0
 16  2  2  0     0  0
 17  2  2  0     0  0
 18 11  2  0     0  0
 19  9  2  0     0  0
 20  4  2  0     0  0
 21  3  1  0     0  0
 22 10  1  0     0  0
 23 15  1  0     0  0
 24 18  1  0     0  0
  4  5  1  0     0  0
 14 13  1  0     0  0
 12 15  2  0     0  0
M  END
>  <prID>
503

>  <IDDB>
153756

>  <pIC50_HIV_Integrase>
4.366531544

>  <Q>
-0.726553055

>  <Activity_Integrase>
Inactive_Integrase

NA
NA
NA
NA
$$$$

  Accelrys05311914322D 1   1.00000     0.00000     0

 36 39  0     0  0            999 V2000
    4.6777   -3.2084    0.0000 C   0  0  0  0  0  0           0  0  0
    4.6766   -2.3852    0.0000 C   0  0  0  0  0  0           0  0  0
    5.3872   -1.9765    0.0000 C   0  0  0  0  0  0           0  0  0
    5.3854   -3.6211    0.0000 C   0  0  0  0  0  0           0  0  0
    6.1008   -3.2120    0.0000 C   0  0  0  0  0  0           0  0  0
    6.0996   -2.3877    0.0000 C   0  0  0  0  0  0           0  0  0
    6.8084   -1.9789    0.0000 C   0  0  0  0  0  0           0  0  0
    7.5229   -2.3857    0.0000 C   0  0  0  0  0  0           0  0  0
    7.5241   -3.2100    0.0000 C   0  0  0  0  0  0           0  0  0
    6.8108   -3.6275    0.0000 O   0  0  0  0  0  0           0  0  0
    6.8061   -1.1581    0.0000 O   0  0  0  0  0  0           0  0  0
    8.2354   -3.6208    0.0000 C   0  0  0  0  0  0           0  0  0
    8.9431   -3.2018    0.0000 C   0  0  0  0  0  0           0  0  0
    9.6539   -3.6119    0.0000 C   0  0  0  0  0  0           0  0  0
    9.6564   -4.4336    0.0000 C   0  0  0  0  0  0           0  0  0
    8.9421   -4.8435    0.0000 C   0  0  0  0  0  0           0  0  0
    8.2342   -4.4352    0.0000 C   0  0  0  0  0  0           0  0  0
   10.3671   -4.8412    0.0000 O   0  0  0  0  0  0           0  0  0
    8.9411   -5.6644    0.0000 O   0  0  0  0  0  0           0  0  0
    3.9673   -3.6207    0.0000 O   0  0  0  0  0  0           0  0  0
    3.2571   -3.2080    0.0000 C   0  0  1  0  0  0           0  0  0
    2.5465   -3.6212    0.0000 C   0  0  1  0  0  0           0  0  0
    1.8384   -3.2121    0.0000 C   0  0  2  0  0  0           0  0  0
    1.8344   -2.3909    0.0000 C   0  0  1  0  0  0           0  0  0
    2.5446   -1.9805    0.0000 C   0  0  2  0  0  0           0  0  0
    3.2589   -2.3872    0.0000 O   0  0  0  0  0  0           0  0  0
    5.3889   -1.1556    0.0000 O   0  0  0  0  0  0           0  0  0
    2.5420   -1.1597    0.0000 C   0  0  0  0  0  0           0  0  0
    1.8304   -0.7495    0.0000 O   0  0  0  0  0  0           0  0  0
    1.1226   -1.9851    0.0000 O   0  0  0  0  0  0           0  0  0
    1.1296   -3.6271    0.0000 O   0  0  0  0  0  0           0  0  0
    2.5476   -4.4421    0.0000 O   0  0  0  0  0  0           0  0  0
    2.5676   -5.2661    0.0000 S   0  0  3  0  0  0           0  0  0
    2.5330   -6.1688    0.0000 O   0  0  0  0  0  0           0  0  0
    3.4949   -5.2340    0.0000 O   0  0  0  0  0  0           0  0  0
    1.7795   -5.2753    0.0000 O   0  0  0  0  0  0           0  0  0
 17 12  1  0     0  0
  5 10  1  0     0  0
 15 18  1  0     0  0
  6  7  1  0     0  0
 16 19  1  0     0  0
  7  8  1  0     0  0
  1 20  1  0     0  0
  8  9  2  0     0  0
 21 20  1  1     0  0
 21 22  1  0     0  0
  9 10  1  0     0  0
  5  6  1  0     0  0
  7 11  2  0     0  0
  9 12  1  0     0  0
 21 26  1  0     0  0
 22 23  1  0     0  0
 23 24  1  0     0  0
 25 24  1  0     0  0
 25 26  1  0     0  0
  2  3  1  0     0  0
  3 27  1  0     0  0
 12 13  2  0     0  0
 25 28  1  1     0  0
  3  6  2  0     0  0
 28 29  1  0     0  0
 13 14  1  0     0  0
 24 30  1  6     0  0
  1  2  2  0     0  0
 23 31  1  1     0  0
 14 15  2  0     0  0
 22 32  1  6     0  0
  5  4  2  0     0  0
 32 33  1  0     0  0
 15 16  1  0     0  0
 33 34  1  0     0  0
  4  1  1  0     0  0
 33 35  2  0     0  0
 16 17  2  0     0  0
 33 36  2  0     0  0
M  END
>  <prID>
504

>  <IDDB>
153890

>  <pIC50_HIV_Integrase>
6.0484550065

>  <Q>
-7.729283042

>  <Activity_Integrase>
Active_Integrase

NA
NA
NA
NA
$$$$

  Accelrys05311914322D 1   1.00000     0.00000     0

 37 40  0     0  0            999 V2000
    4.6777   -3.2084    0.0000 C   0  0  0  0  0  0           0  0  0
    4.6766   -2.3852    0.0000 C   0  0  0  0  0  0           0  0  0
    5.3872   -1.9765    0.0000 C   0  0  0  0  0  0           0  0  0
    5.3854   -3.6211    0.0000 C   0  0  0  0  0  0           0  0  0
    6.1008   -3.2120    0.0000 C   0  0  0  0  0  0           0  0  0
    6.0996   -2.3877    0.0000 C   0  0  0  0  0  0           0  0  0
    6.8084   -1.9789    0.0000 C   0  0  0  0  0  0           0  0  0
    7.5229   -2.3857    0.0000 C   0  0  0  0  0  0           0  0  0
    7.5241   -3.2100    0.0000 C   0  0  0  0  0  0           0  0  0
    6.8108   -3.6275    0.0000 O   0  0  0  0  0  0           0  0  0
    6.8061   -1.1581    0.0000 O   0  0  0  0  0  0           0  0  0
    8.2354   -3.6208    0.0000 C   0  0  0  0  0  0           0  0  0
    8.9431   -3.2018    0.0000 C   0  0  0  0  0  0           0  0  0
    9.6539   -3.6119    0.0000 C   0  0  0  0  0  0           0  0  0
    9.6564   -4.4336    0.0000 C   0  0  0  0  0  0           0  0  0
    8.9421   -4.8435    0.0000 C   0  0  0  0  0  0           0  0  0
    8.2342   -4.4352    0.0000 C   0  0  0  0  0  0           0  0  0
   10.3671   -4.8412    0.0000 O   0  0  0  0  0  0           0  0  0
    8.9411   -5.6644    0.0000 O   0  0  0  0  0  0           0  0  0
    3.9673   -3.6207    0.0000 O   0  0  0  0  0  0           0  0  0
    3.2571   -3.2080    0.0000 C   0  0  1  0  0  0           0  0  0
    2.5465   -3.6212    0.0000 C   0  0  1  0  0  0           0  0  0
    1.8384   -3.2121    0.0000 C   0  0  2  0  0  0           0  0  0
    1.8344   -2.3909    0.0000 C   0  0  1  0  0  0           0  0  0
    2.5446   -1.9805    0.0000 C   0  0  2  0  0  0           0  0  0
    3.2589   -2.3872    0.0000 O   0  0  0  0  0  0           0  0  0
    5.3889   -1.1556    0.0000 O   0  0  0  0  0  0           0  0  0
    2.5420   -1.1597    0.0000 C   0  0  0  0  0  0           0  0  0
    1.8304   -0.7495    0.0000 O   0  0  0  0  0  0           0  0  0
    1.1226   -1.9851    0.0000 O   0  0  0  0  0  0           0  0  0
    1.1296   -3.6271    0.0000 O   0  0  0  0  0  0           0  0  0
    2.5476   -4.4421    0.0000 O   0  0  0  0  0  0           0  0  0
    2.5676   -5.2661    0.0000 S   0  0  3  0  0  0           0  0  0
    2.5330   -6.1688    0.0000 O   0  0  0  0  0  0           0  0  0
    3.4949   -5.2340    0.0000 O   0  0  0  0  0  0           0  0  0
    1.6836   -5.2753    0.0000 O   0  0  0  0  0  0           0  0  0
    8.2304   -6.0761    0.0000 C   0  0  0  0  0  0           0  0  0
  5 10  1  0     0  0
 15 18  1  0     0  0
  6  7  1  0     0  0
 16 19  1  0     0  0
  7  8  1  0     0  0
  1 20  1  0     0  0
  8  9  2  0     0  0
 21 20  1  1     0  0
 21 22  1  0     0  0
  9 10  1  0     0  0
  5  6  1  0     0  0
  7 11  2  0     0  0
  9 12  1  0     0  0
 21 26  1  0     0  0
 22 23  1  0     0  0
 23 24  1  0     0  0
 25 24  1  0     0  0
 25 26  1  0     0  0
  2  3  1  0     0  0
  3 27  1  0     0  0
 12 13  2  0     0  0
 25 28  1  1     0  0
  3  6  2  0     0  0
 28 29  1  0     0  0
 13 14  1  0     0  0
 24 30  1  6     0  0
  1  2  2  0     0  0
 23 31  1  1     0  0
 14 15  2  0     0  0
 22 32  1  6     0  0
  5  4  2  0     0  0
 32 33  1  0     0  0
 15 16  1  0     0  0
 33 34  1  0     0  0
  4  1  1  0     0  0
 33 35  2  0     0  0
 16 17  2  0     0  0
 33 36  2  0     0  0
 17 12  1  0     0  0
 19 37  1  0     0  0
M  END
>  <prID>
505

>  <IDDB>
153891

>  <pIC50_HIV_Integrase>
4.366531544

>  <Q>
-7.145428708

>  <Activity_Integrase>
Inactive_Integrase

NA
NA
NA
NA
$$$$

  Accelrys05311914332D 1   1.00000     0.00000     0

 35 38  0     0  0            999 V2000
    4.8027   -3.0922    0.0000 C   0  0  0  0  0  0           0  0  0
    4.8016   -2.2685    0.0000 C   0  0  0  0  0  0           0  0  0
    5.5122   -1.8598    0.0000 C   0  0  0  0  0  0           0  0  0
    5.5104   -3.5044    0.0000 C   0  0  0  0  0  0           0  0  0
    6.2258   -3.0953    0.0000 C   0  0  0  0  0  0           0  0  0
    6.2246   -2.2710    0.0000 C   0  0  0  0  0  0           0  0  0
    6.9334   -1.8622    0.0000 C   0  0  0  0  0  0           0  0  0
    7.6479   -2.2690    0.0000 C   0  0  0  0  0  0           0  0  0
    7.6491   -3.0933    0.0000 C   0  0  0  0  0  0           0  0  0
    6.9358   -3.5108    0.0000 O   0  0  0  0  0  0           0  0  0
    6.9311   -1.0414    0.0000 O   0  0  0  0  0  0           0  0  0
    8.3604   -3.5041    0.0000 C   0  0  0  0  0  0           0  0  0
    9.0681   -3.0851    0.0000 C   0  0  0  0  0  0           0  0  0
    9.7789   -3.4952    0.0000 C   0  0  0  0  0  0           0  0  0
    9.7814   -4.3169    0.0000 C   0  0  0  0  0  0           0  0  0
    9.0671   -4.7268    0.0000 C   0  0  0  0  0  0           0  0  0
    8.3592   -4.3185    0.0000 C   0  0  0  0  0  0           0  0  0
   10.4921   -4.7245    0.0000 O   0  0  0  0  0  0           0  0  0
    4.0288   -3.3643    0.0000 O   0  0  0  0  0  0           0  0  0
    3.3206   -2.9288    0.0000 C   0  0  1  0  0  0           0  0  0
    2.6101   -3.3322    0.0000 C   0  0  1  0  0  0           0  0  0
    1.9054   -2.9024    0.0000 C   0  0  2  0  0  0           0  0  0
    1.9233   -2.0841    0.0000 C   0  0  1  0  0  0           0  0  0
    2.6411   -1.6889    0.0000 C   0  0  2  0  0  0           0  0  0
    3.3456   -2.1112    0.0000 O   0  0  0  0  0  0           0  0  0
    5.5139   -1.0389    0.0000 O   0  0  0  0  0  0           0  0  0
    2.6556   -0.8657    0.0000 C   0  0  0  0  0  0           0  0  0
    1.9525   -0.4393    0.0000 O   0  0  0  0  0  0           0  0  0
    1.2162   -1.6579    0.0000 O   0  0  0  0  0  0           0  0  0
    1.1906   -3.3035    0.0000 O   0  0  0  0  0  0           0  0  0
    2.5888   -4.1501    0.0000 O   0  0  0  0  0  0           0  0  0
    2.5854   -4.9707    0.0000 S   0  0  3  0  0  0           0  0  0
    2.5332   -5.8759    0.0000 O   0  0  0  0  0  0           0  0  0
    3.5147   -4.9615    0.0000 O   0  0  0  0  0  0           0  0  0
    1.7078   -4.9643    0.0000 O   0  0  0  0  0  0           0  0  0
 16 17  2  0     0  0
 17 12  1  0     0  0
  5 10  1  0     0  0
 15 18  1  0     0  0
  6  7  1  0     0  0
  1 19  1  0     0  0
  7  8  1  0     0  0
 20 19  1  1     0  0
 20 21  1  0     0  0
  8  9  2  0     0  0
  9 10  1  0     0  0
  5  6  1  0     0  0
  7 11  2  0     0  0
 20 25  1  0     0  0
 21 22  1  0     0  0
 22 23  1  0     0  0
 24 23  1  0     0  0
 24 25  1  0     0  0
  9 12  1  0     0  0
  3 26  1  0     0  0
  2  3  1  0     0  0
 24 27  1  1     0  0
 12 13  2  0     0  0
 27 28  1  0     0  0
  3  6  2  0     0  0
 23 29  1  6     0  0
 13 14  1  0     0  0
 22 30  1  1     0  0
  1  2  2  0     0  0
 21 31  1  6     0  0
 14 15  2  0     0  0
 31 32  1  0     0  0
  5  4  2  0     0  0
 32 33  1  0     0  0
 15 16  1  0     0  0
 32 34  2  0     0  0
  4  1  1  0     0  0
 32 35  2  0     0  0
M  END
>  <prID>
506

>  <IDDB>
153892

>  <pIC50_HIV_Integrase>
4.2033569665

>  <Q>
-6.915193401

>  <Activity_Integrase>
Inactive_Integrase

NA
NA
NA
NA
$$$$

  Accelrys05311914322D 1   1.00000     0.00000     0

 47 52  0     0  0            999 V2000
    4.4356   -3.3191    0.0000 C   0  0  3  0  0  0           0  0  0
    4.4311   -4.1424    0.0000 O   0  0  0  0  0  0           0  0  0
    5.1415   -4.5548    0.0000 C   0  0  1  0  0  0           0  0  0
    5.8584   -4.1458    0.0000 C   0  0  2  0  0  0           0  0  0
    5.8604   -3.3199    0.0000 C   0  0  0  0  0  0           0  0  0
    5.1455   -2.9029    0.0000 C   0  0  2  0  0  0           0  0  0
    0.8694   -3.7375    0.0000 C   0  0  0  0  0  0           0  0  0
    0.8682   -4.5648    0.0000 C   0  0  0  0  0  0           0  0  0
    1.5831   -4.9777    0.0000 C   0  0  0  0  0  0           0  0  0
    2.2995   -4.5644    0.0000 C   0  0  0  0  0  0           0  0  0
    2.2966   -3.7338    0.0000 C   0  0  0  0  0  0           0  0  0
    1.5813   -3.3247    0.0000 C   0  0  0  0  0  0           0  0  0
    3.0096   -3.3186    0.0000 C   0  0  1  0  0  0           0  0  0
    3.7229   -3.7307    0.0000 O   0  0  0  0  0  0           0  0  0
    4.4348   -2.4937    0.0000 C   0  0  0  0  0  0           0  0  0
    3.7190   -2.0817    0.0000 C   0  0  0  0  0  0           0  0  0
    3.0019   -2.4950    0.0000 C   0  0  2  0  0  0           0  0  0
    2.2857   -2.0856    0.0000 C   0  0  0  0  0  0           0  0  0
    5.1445   -2.0779    0.0000 C   0  0  0  0  0  0           0  0  0
    6.5713   -4.5610    0.0000 C   0  0  0  0  0  0           0  0  0
    5.1384   -5.3798    0.0000 C   0  0  0  0  0  0           0  0  0
    4.4223   -5.7896    0.0000 C   0  0  2  0  0  0           0  0  0
    3.7124   -5.3719    0.0000 C   0  0  0  0  0  0           0  0  0
    2.9985   -5.7782    0.0000 C   0  0  0  0  0  0           0  0  0
    4.4240   -6.6130    0.0000 C   0  0  1  0  0  0           0  0  0
    3.7183   -4.5469    0.0000 C   0  0  0  0  0  0           0  0  0
    3.7038   -7.0209    0.0000 C   0  0  3  0  0  0           0  0  0
    2.9964   -6.6021    0.0000 C   0  0  3  0  0  0           0  0  0
    2.2840   -7.0031    0.0000 C   0  0  0  0  0  0           0  0  0
    2.2727   -7.8245    0.0000 C   0  0  0  0  0  0           0  0  0
    2.9801   -8.2433    0.0000 C   0  0  2  0  0  0           0  0  0
    3.6988   -7.8408    0.0000 C   0  0  2  0  0  0           0  0  0
    2.9702   -9.0683    0.0000 O   0  0  0  0  0  0           0  0  0
    4.4093   -8.2601    0.0000 C   0  0  0  0  0  0           0  0  0
    5.1372   -7.0277    0.0000 C   0  0  0  0  0  0           0  0  0
    5.1346   -7.8527    0.0000 O   0  0  0  0  0  0           0  0  0
    5.9605   -7.0332    0.0000 C   0  0  0  0  0  0           0  0  0
    6.5136   -7.6410    0.0000 C   0  0  0  0  0  0           0  0  0
    7.2658   -7.3022    0.0000 N   0  0  0  0  0  0           0  0  0
    7.1761   -6.4821    0.0000 C   0  0  3  0  0  0           0  0  0
    6.3684   -6.3141    0.0000 C   0  0  0  0  0  0           0  0  0
    6.4875   -8.4821    0.0000 O   0  0  0  0  0  0           0  0  0
    6.0284   -5.5624    0.0000 O   0  0  0  0  0  0           0  0  0
    7.7868   -5.9274    0.0000 O   0  0  0  0  0  0           0  0  0
    0.1548   -3.3251    0.0000 O   0  0  0  0  0  0           0  0  0
    1.5829   -5.8027    0.0000 O   0  0  0  0  0  0           0  0  0
    5.9374   -4.7719    0.0000 H   0  0  0  0  0  0           0  0  0
 22 23  1  0     0  0
  4  5  1  0     0  0
 11 12  2  0     0  0
 12  7  1  0     0  0
 22 25  1  0     0  0
 23 24  2  0     0  0
 24 28  1  0     0  0
 27 25  1  0     0  0
  5  6  1  0     0  0
 23 26  1  0     0  0
 27 28  1  0     0  0
 13 11  1  6     0  0
 13 14  1  0     0  0
  1  2  1  0     0  0
  7  8  2  0     0  0
  1  6  1  0     0  0
 27 32  1  0     0  0
 28 29  1  0     0  0
 29 30  1  0     0  0
 30 31  1  0     0  0
 31 32  1  0     0  0
 13 17  1  0     0  0
 31 33  1  6     0  0
 14  1  1  0     0  0
 32 34  1  1     0  0
  1 15  1  0     0  0
 25 35  1  6     0  0
 15 16  1  0     0  0
 35 36  2  0     0  0
 16 17  1  0     0  0
 35 37  1  0     0  0
 37 38  1  0     0  0
  8  9  1  0     0  0
 17 18  1  1     0  0
  2  3  1  0     0  0
  6 19  1  1     0  0
 38 39  1  0     0  0
 39 40  1  0     0  0
 40 41  1  0     0  0
 41 37  2  0     0  0
  9 10  2  0     0  0
 38 42  2  0     0  0
  4 20  1  6     0  0
 41 43  1  0     0  0
  3  4  1  0     0  0
 40 44  1  0     0  0
  3 21  1  0     0  0
  7 45  1  0     0  0
 10 11  1  0     0  0
  9 46  1  0     0  0
 22 21  1  1     0  0
  3 47  1  6     0  0
M  END
>  <prID>
507

>  <IDDB>
154159

>  <pIC50_HIV_Integrase>
5.397940009

>  <Q>
-10.10923393

>  <Activity_Integrase>
Inactive_Integrase

NA
NA
NA
NA
$$$$

  Accelrys05311914322D 1   1.00000     0.00000     0

 48 53  0     0  0            999 V2000
    4.4356   -3.3191    0.0000 C   0  0  3  0  0  0           0  0  0
    4.4311   -4.1424    0.0000 O   0  0  0  0  0  0           0  0  0
    5.1415   -4.5548    0.0000 C   0  0  1  0  0  0           0  0  0
    5.8584   -4.1458    0.0000 C   0  0  2  0  0  0           0  0  0
    5.8604   -3.3199    0.0000 C   0  0  0  0  0  0           0  0  0
    5.1455   -2.9029    0.0000 C   0  0  2  0  0  0           0  0  0
    0.8694   -3.7375    0.0000 C   0  0  0  0  0  0           0  0  0
    0.8682   -4.5648    0.0000 C   0  0  0  0  0  0           0  0  0
    1.5831   -4.9777    0.0000 C   0  0  0  0  0  0           0  0  0
    2.2995   -4.5644    0.0000 C   0  0  0  0  0  0           0  0  0
    2.2966   -3.7338    0.0000 C   0  0  0  0  0  0           0  0  0
    1.5813   -3.3247    0.0000 C   0  0  0  0  0  0           0  0  0
    3.0096   -3.3186    0.0000 C   0  0  1  0  0  0           0  0  0
    3.7229   -3.7307    0.0000 O   0  0  0  0  0  0           0  0  0
    4.4348   -2.4937    0.0000 C   0  0  0  0  0  0           0  0  0
    3.7190   -2.0817    0.0000 C   0  0  0  0  0  0           0  0  0
    3.0019   -2.4950    0.0000 C   0  0  2  0  0  0           0  0  0
    2.2857   -2.0856    0.0000 C   0  0  0  0  0  0           0  0  0
    5.1445   -2.0779    0.0000 C   0  0  0  0  0  0           0  0  0
    6.5713   -4.5610    0.0000 C   0  0  0  0  0  0           0  0  0
    5.1384   -5.3798    0.0000 C   0  0  0  0  0  0           0  0  0
    4.4223   -5.7896    0.0000 C   0  0  2  0  0  0           0  0  0
    3.7124   -5.3719    0.0000 C   0  0  0  0  0  0           0  0  0
    2.9985   -5.7782    0.0000 C   0  0  0  0  0  0           0  0  0
    4.4240   -6.6130    0.0000 C   0  0  1  0  0  0           0  0  0
    3.7183   -4.5469    0.0000 C   0  0  0  0  0  0           0  0  0
    3.7038   -7.0209    0.0000 C   0  0  3  0  0  0           0  0  0
    2.9964   -6.6021    0.0000 C   0  0  3  0  0  0           0  0  0
    2.2840   -7.0031    0.0000 C   0  0  0  0  0  0           0  0  0
    2.2727   -7.8245    0.0000 C   0  0  0  0  0  0           0  0  0
    2.9801   -8.2433    0.0000 C   0  0  2  0  0  0           0  0  0
    3.6988   -7.8408    0.0000 C   0  0  2  0  0  0           0  0  0
    2.9702   -9.0683    0.0000 O   0  0  0  0  0  0           0  0  0
    4.4093   -8.2601    0.0000 C   0  0  0  0  0  0           0  0  0
    5.1372   -7.0277    0.0000 C   0  0  0  0  0  0           0  0  0
    5.1346   -7.8527    0.0000 O   0  0  0  0  0  0           0  0  0
    5.9605   -7.0332    0.0000 C   0  0  0  0  0  0           0  0  0
    6.5136   -7.6410    0.0000 C   0  0  0  0  0  0           0  0  0
    7.2658   -7.3022    0.0000 N   0  0  0  0  0  0           0  0  0
    7.1761   -6.4821    0.0000 C   0  0  3  0  0  0           0  0  0
    6.3684   -6.3141    0.0000 C   0  0  0  0  0  0           0  0  0
    6.4875   -8.4821    0.0000 O   0  0  0  0  0  0           0  0  0
    6.0284   -5.5624    0.0000 O   0  0  0  0  0  0           0  0  0
    7.7868   -5.9274    0.0000 O   0  0  0  0  0  0           0  0  0
    0.1548   -3.3251    0.0000 O   0  0  0  0  0  0           0  0  0
    1.5829   -5.8027    0.0000 O   0  0  0  0  0  0           0  0  0
    5.9374   -4.7719    0.0000 H   0  0  0  0  0  0           0  0  0
    8.5725   -6.1790    0.0000 C   0  0  0  0  0  0           0  0  0
  4  5  1  0     0  0
 11 12  2  0     0  0
 12  7  1  0     0  0
 22 25  1  0     0  0
 23 24  2  0     0  0
 24 28  1  0     0  0
 27 25  1  0     0  0
  5  6  1  0     0  0
 23 26  1  0     0  0
 27 28  1  0     0  0
 13 11  1  6     0  0
 13 14  1  0     0  0
  1  2  1  0     0  0
  7  8  2  0     0  0
  1  6  1  0     0  0
 27 32  1  0     0  0
 28 29  1  0     0  0
 29 30  1  0     0  0
 30 31  1  0     0  0
 31 32  1  0     0  0
 13 17  1  0     0  0
 31 33  1  6     0  0
 14  1  1  0     0  0
 32 34  1  1     0  0
  1 15  1  0     0  0
 25 35  1  6     0  0
 15 16  1  0     0  0
 35 36  2  0     0  0
 16 17  1  0     0  0
 35 37  1  0     0  0
 37 38  1  0     0  0
  8  9  1  0     0  0
 17 18  1  1     0  0
  2  3  1  0     0  0
  6 19  1  1     0  0
 38 39  1  0     0  0
 39 40  1  0     0  0
 40 41  1  0     0  0
 41 37  2  0     0  0
  9 10  2  0     0  0
 38 42  2  0     0  0
  4 20  1  6     0  0
 41 43  1  0     0  0
  3  4  1  0     0  0
 40 44  1  0     0  0
  3 21  1  0     0  0
  7 45  1  0     0  0
 10 11  1  0     0  0
  9 46  1  0     0  0
 22 21  1  1     0  0
  3 47  1  6     0  0
 22 23  1  0     0  0
 44 48  1  0     0  0
M  END
>  <prID>
508

>  <IDDB>
154160

>  <pIC50_HIV_Integrase>
5.214670165

>  <Q>
-9.506580177

>  <Activity_Integrase>
Inactive_Integrase

NA
NA
NA
NA
$$$$

  Accelrys05311914322D 1   1.00000     0.00000     0

 17 17  0     0  0            999 V2000
    0.8966   -0.5672    0.0000 C   0  0  0  0  0  0           0  0  0
    1.6091   -0.1547    0.0000 C   0  0  0  0  0  0           0  0  0
    2.3216   -0.5672    0.0000 C   0  0  0  0  0  0           0  0  0
    3.0341   -0.1547    0.0000 C   0  0  0  0  0  0           0  0  0
    3.7466   -0.5672    0.0000 C   0  0  0  0  0  0           0  0  0
    4.4591   -0.1547    0.0000 C   0  0  0  0  0  0           0  0  0
    5.1716   -0.5672    0.0000 C   0  0  0  0  0  0           0  0  0
    5.8841   -0.1547    0.0000 O   0  0  0  0  0  0           0  0  0
   -0.5306   -0.5708    0.0000 C   0  0  0  0  0  0           0  0  0
   -0.5318   -1.3982    0.0000 C   0  0  0  0  0  0           0  0  0
    0.1831   -1.8110    0.0000 C   0  0  0  0  0  0           0  0  0
    0.8995   -1.3977    0.0000 C   0  0  0  0  0  0           0  0  0
    0.1813   -0.1580    0.0000 C   0  0  0  0  0  0           0  0  0
    1.6042    0.6708    0.0000 O   0  0  0  0  0  0           0  0  0
    3.0292    0.6708    0.0000 O   0  0  0  0  0  0           0  0  0
    4.4542    0.6708    0.0000 O   0  0  0  0  0  0           0  0  0
    5.1667   -1.3917    0.0000 O   0  0  0  0  0  0           0  0  0
  4  5  1  0     0  0
  9 10  2  0     0  0
  2  3  2  0     0  0
 10 11  1  0     0  0
  5  6  2  0     0  0
 11 12  2  0     0  0
 12  1  1  0     0  0
  1  2  1  0     0  0
  1 13  2  0     0  0
 13  9  1  0     0  0
  6  7  1  0     0  0
  2 14  1  0     0  0
  3  4  1  0     0  0
  4 15  2  0     0  0
  7  8  1  0     0  0
  6 16  1  0     0  0
  7 17  2  0     0  0
M  END
>  <prID>
509

>  <IDDB>
160821

>  <pIC50_HIV_Integrase>
3.22184875

>  <Q>
-1.243387562

>  <Activity_Integrase>
Inactive_Integrase

NA
NA
NA
NA
$$$$

  Accelrys05311914322D 1   1.00000     0.00000     0

 22 22  0     0  0            999 V2000
    5.0340   -6.0855    0.0000 N   0  0  0  0  0  0           0  0  0
    4.0340   -6.0799    0.0000 N   0  3  0  0  0  0           0  0  0
    3.0633   -6.0496    0.0000 N   0  5  0  0  0  0           0  0  0
    2.6879   -3.6864    0.0000 N   0  3  0  0  0  0           0  0  0
    1.7166   -3.6774    0.0000 N   0  5  0  0  0  0           0  0  0
    3.6918   -3.6658    0.0000 N   0  0  0  0  0  0           0  0  0
    6.4208   -3.6667    0.0000 C   0  0  0  0  0  0           0  0  0
    7.1000   -3.2708    0.0000 C   0  0  0  0  0  0           0  0  0
    7.7833   -3.6625    0.0000 C   0  0  0  0  0  0           0  0  0
    8.4625   -3.2667    0.0000 C   0  0  0  0  0  0           0  0  0
    9.1458   -3.6583    0.0000 C   0  0  0  0  0  0           0  0  0
    7.0982   -2.4833    0.0000 O   0  0  0  0  0  0           0  0  0
    8.4607   -2.4792    0.0000 O   0  0  0  0  0  0           0  0  0
    9.1485   -4.4500    0.0000 O   0  0  0  0  0  0           0  0  0
    9.8257   -3.2602    0.0000 O   0  0  0  0  0  0           0  0  0
    5.7370   -3.2696    0.0000 C   0  0  0  0  0  0           0  0  0
    5.0583   -3.6647    0.0000 C   0  0  0  0  0  0           0  0  0
    5.0588   -4.4514    0.0000 C   0  0  0  0  0  0           0  0  0
    5.7440   -4.8454    0.0000 C   0  0  0  0  0  0           0  0  0
    6.4239   -4.4479    0.0000 C   0  0  0  0  0  0           0  0  0
    4.3727   -3.2694    0.0000 C   0  0  0  0  0  0           0  0  0
    5.7470   -5.6704    0.0000 C   0  0  0  0  0  0           0  0  0
  2  1  2  0     0  0
 10 13  2  0     0  0
  7  8  1  0     0  0
 11 14  2  0     0  0
  3  2  2  0     0  0
 11 15  1  0     0  0
  8  9  1  0     0  0
  7 16  2  0     0  0
  4  6  2  0     0  0
 16 17  1  0     0  0
  9 10  1  0     0  0
 17 18  2  0     0  0
  5  4  2  0     0  0
 18 19  1  0     0  0
 10 11  1  0     0  0
 19 20  2  0     0  0
 20  7  1  0     0  0
 17 21  1  0     0  0
 21  6  1  0     0  0
  8 12  2  0     0  0
 19 22  1  0     0  0
 22  1  1  0     0  0
M  CHG  4   2   1   3  -1   4   1   5  -1
M  END
>  <prID>
510

>  <IDDB>
165866

>  <pIC50_HIV_Integrase>
6.018106086

>  <Q>
-2.200880538

>  <Activity_Integrase>
Active_Integrase

NA
NA
NA
NA
$$$$

  Accelrys05311914322D 1   1.00000     0.00000     0

 22 22  0     0  0            999 V2000
    3.7243   -5.6630    0.0000 N   0  3  0  0  0  0           0  0  0
    2.7411   -5.6285    0.0000 N   0  5  0  0  0  0           0  0  0
    4.7409   -5.6685    0.0000 N   0  0  0  0  0  0           0  0  0
    3.0504   -3.6531    0.0000 N   0  3  0  0  0  0           0  0  0
    2.0625   -3.6441    0.0000 N   0  5  0  0  0  0           0  0  0
    4.0668   -3.6324    0.0000 N   0  0  0  0  0  0           0  0  0
    6.8375   -3.6333    0.0000 C   0  0  0  0  0  0           0  0  0
    7.5292   -3.2333    0.0000 C   0  0  0  0  0  0           0  0  0
    8.2208   -3.6292    0.0000 C   0  0  0  0  0  0           0  0  0
    8.9125   -3.2292    0.0000 C   0  0  0  0  0  0           0  0  0
    9.6042   -3.6250    0.0000 C   0  0  0  0  0  0           0  0  0
    7.5274   -2.4333    0.0000 O   0  0  0  0  0  0           0  0  0
    8.9107   -2.4292    0.0000 O   0  0  0  0  0  0           0  0  0
    9.6068   -4.4292    0.0000 O   0  0  0  0  0  0           0  0  0
   10.2965   -3.2227    0.0000 O   0  0  0  0  0  0           0  0  0
    6.1453   -3.2321    0.0000 C   0  0  0  0  0  0           0  0  0
    5.4541   -3.6314    0.0000 C   0  0  0  0  0  0           0  0  0
    5.4547   -4.4306    0.0000 C   0  0  0  0  0  0           0  0  0
    6.1523   -4.8329    0.0000 C   0  0  0  0  0  0           0  0  0
    6.8406   -4.4270    0.0000 C   0  0  0  0  0  0           0  0  0
    4.7602   -3.2319    0.0000 C   0  0  0  0  0  0           0  0  0
    4.7404   -4.8435    0.0000 C   0  0  0  0  0  0           0  0  0
  1  3  2  0     0  0
 10 13  2  0     0  0
  7  8  1  0     0  0
 11 14  2  0     0  0
  2  1  2  0     0  0
 11 15  1  0     0  0
  8  9  1  0     0  0
  7 16  2  0     0  0
  4  6  2  0     0  0
 16 17  1  0     0  0
  9 10  1  0     0  0
 17 18  2  0     0  0
  5  4  2  0     0  0
 18 19  1  0     0  0
 10 11  1  0     0  0
 19 20  2  0     0  0
 20  7  1  0     0  0
 17 21  1  0     0  0
 21  6  1  0     0  0
  8 12  2  0     0  0
 18 22  1  0     0  0
 22  3  1  0     0  0
M  CHG  4   1   1   2  -1   4   1   5  -1
M  END
>  <prID>
511

>  <IDDB>
165867

>  <pIC50_HIV_Integrase>
6.823908741

>  <Q>
-2.257214096

>  <Activity_Integrase>
Active_Integrase

NA
NA
NA
NA
$$$$

  Accelrys05311914322D 1   1.00000     0.00000     0

 24 25  0     0  0            999 V2000
    3.3898   -2.5146    0.0000 N   0  3  0  0  0  0           0  0  0
    2.4185   -2.5055    0.0000 N   0  5  0  0  0  0           0  0  0
    4.3937   -2.4939    0.0000 N   0  0  0  0  0  0           0  0  0
    4.3788   -5.6247    0.0000 N   0  0  0  0  0  0           0  0  0
    3.3788   -5.6191    0.0000 N   0  3  0  0  0  0           0  0  0
    2.4081   -5.5888    0.0000 N   0  5  0  0  0  0           0  0  0
    6.4208   -3.6667    0.0000 C   0  0  0  0  0  0           0  0  0
    7.1000   -3.2708    0.0000 C   0  0  0  0  0  0           0  0  0
    7.7833   -3.6625    0.0000 C   0  0  0  0  0  0           0  0  0
    8.4625   -3.2667    0.0000 C   0  0  0  0  0  0           0  0  0
    9.1458   -3.6583    0.0000 C   0  0  0  0  0  0           0  0  0
    7.0982   -2.4833    0.0000 O   0  0  0  0  0  0           0  0  0
    8.4607   -2.4792    0.0000 O   0  0  0  0  0  0           0  0  0
    9.1485   -4.4500    0.0000 O   0  0  0  0  0  0           0  0  0
    9.8257   -3.2602    0.0000 O   0  0  0  0  0  0           0  0  0
    5.7370   -3.2696    0.0000 C   0  0  0  0  0  0           0  0  0
    5.7440   -4.8454    0.0000 C   0  0  0  0  0  0           0  0  0
    6.4239   -4.4479    0.0000 C   0  0  0  0  0  0           0  0  0
    5.0588   -4.4514    0.0000 C   0  0  0  0  0  0           0  0  0
    5.0626   -3.6671    0.0000 C   0  0  0  0  0  0           0  0  0
    4.3889   -3.2739    0.0000 C   0  0  3  0  0  0           0  0  0
    3.7073   -3.6606    0.0000 C   0  0  0  0  0  0           0  0  0
    3.7035   -4.4450    0.0000 C   0  0  0  0  0  0           0  0  0
    4.3815   -4.8425    0.0000 C   0  0  3  0  0  0           0  0  0
  7  8  1  0     0  0
 11 14  2  0     0  0
  2  1  2  0     0  0
 11 15  1  0     0  0
  8  9  1  0     0  0
  7 16  2  0     0  0
 16 20  1  0     0  0
  5  4  2  0     0  0
 19 17  1  0     0  0
  9 10  1  0     0  0
 17 18  2  0     0  0
 18  7  1  0     0  0
 19 20  2  0     0  0
  6  5  2  0     0  0
 10 11  1  0     0  0
  8 12  2  0     0  0
  1  3  2  0     0  0
 10 13  2  0     0  0
 19 24  1  0     0  0
 20 21  1  0     0  0
 21 22  1  0     0  0
 22 23  1  0     0  0
 23 24  1  0     0  0
 21  3  1  0     0  0
 24  4  1  0     0  0
M  CHG  4   1   1   2  -1   5   1   6  -1
M  END
>  <prID>
512

>  <IDDB>
165868

>  <pIC50_HIV_Integrase>
6.494850022

>  <Q>
-3.119141598

>  <Activity_Integrase>
Active_Integrase

NA
NA
NA
NA
$$$$

  Accelrys05311914322D 1   1.00000     0.00000     0

 23 24  0     0  0            999 V2000
    4.0492   -5.4724    0.0000 N   0  0  0  0  0  0           0  0  0
    3.0492   -5.4710    0.0000 N   0  3  0  0  0  0           0  0  0
    2.0785   -5.4574    0.0000 N   0  5  0  0  0  0           0  0  0
    3.0640   -2.6539    0.0000 N   0  3  0  0  0  0           0  0  0
    2.0928   -2.6449    0.0000 N   0  5  0  0  0  0           0  0  0
    4.0680   -2.6333    0.0000 N   0  0  0  0  0  0           0  0  0
    6.4208   -3.6667    0.0000 C   0  0  0  0  0  0           0  0  0
    7.1000   -3.2708    0.0000 C   0  0  0  0  0  0           0  0  0
    7.7833   -3.6625    0.0000 C   0  0  0  0  0  0           0  0  0
    8.4625   -3.2667    0.0000 C   0  0  0  0  0  0           0  0  0
    9.1458   -3.6583    0.0000 C   0  0  0  0  0  0           0  0  0
    7.0982   -2.4833    0.0000 O   0  0  0  0  0  0           0  0  0
    8.4607   -2.4792    0.0000 O   0  0  0  0  0  0           0  0  0
    9.1485   -4.4500    0.0000 O   0  0  0  0  0  0           0  0  0
    9.8257   -3.2602    0.0000 O   0  0  0  0  0  0           0  0  0
    5.7370   -3.2696    0.0000 C   0  0  0  0  0  0           0  0  0
    5.7440   -4.8454    0.0000 C   0  0  0  0  0  0           0  0  0
    6.4239   -4.4479    0.0000 C   0  0  0  0  0  0           0  0  0
    5.0574   -4.4520    0.0000 C   0  0  0  0  0  0           0  0  0
    5.0626   -3.6671    0.0000 C   0  0  0  0  0  0           0  0  0
    4.3177   -3.4196    0.0000 C   0  0  3  0  0  0           0  0  0
    3.8521   -4.0515    0.0000 C   0  0  0  0  0  0           0  0  0
    4.3093   -4.6895    0.0000 C   0  0  3  0  0  0           0  0  0
 10 13  2  0     0  0
  7  8  1  0     0  0
 11 14  2  0     0  0
  3  2  2  0     0  0
 11 15  1  0     0  0
  8  9  1  0     0  0
  7 16  2  0     0  0
 16 20  1  0     0  0
  4  6  2  0     0  0
 19 17  1  0     0  0
  9 10  1  0     0  0
 17 18  2  0     0  0
 18  7  1  0     0  0
 19 20  2  0     0  0
  5  4  2  0     0  0
 10 11  1  0     0  0
  8 12  2  0     0  0
  2  1  2  0     0  0
 20 21  1  0     0  0
 21 22  1  0     0  0
 22 23  1  0     0  0
 23 19  1  0     0  0
 21  6  1  0     0  0
 23  1  1  0     0  0
M  CHG  4   2   1   3  -1   4   1   5  -1
M  END
>  <prID>
513

>  <IDDB>
165869

>  <pIC50_HIV_Integrase>
6.443697499

>  <Q>
-2.863892222

>  <Activity_Integrase>
Active_Integrase

NA
NA
NA
NA
$$$$

  Accelrys05311914322D 1   1.00000     0.00000     0

 18 18  0     0  0            999 V2000
    2.7027   -3.6894    0.0000 N   0  3  0  0  0  0           0  0  0
    1.7315   -3.6803    0.0000 N   0  5  0  0  0  0           0  0  0
    3.7067   -3.6687    0.0000 N   0  0  0  0  0  0           0  0  0
    6.4208   -3.6667    0.0000 C   0  0  0  0  0  0           0  0  0
    7.1000   -3.2708    0.0000 C   0  0  0  0  0  0           0  0  0
    7.7833   -3.6625    0.0000 C   0  0  0  0  0  0           0  0  0
    8.4625   -3.2667    0.0000 C   0  0  0  0  0  0           0  0  0
    9.1458   -3.6583    0.0000 C   0  0  0  0  0  0           0  0  0
    7.0982   -2.4833    0.0000 O   0  0  0  0  0  0           0  0  0
    8.4607   -2.4792    0.0000 O   0  0  0  0  0  0           0  0  0
    9.1485   -4.4500    0.0000 O   0  0  0  0  0  0           0  0  0
    9.8257   -3.2602    0.0000 O   0  0  0  0  0  0           0  0  0
    5.7370   -3.2696    0.0000 C   0  0  0  0  0  0           0  0  0
    5.7440   -4.8454    0.0000 C   0  0  0  0  0  0           0  0  0
    6.4239   -4.4479    0.0000 C   0  0  0  0  0  0           0  0  0
    5.0574   -4.4520    0.0000 C   0  0  0  0  0  0           0  0  0
    5.0626   -3.6671    0.0000 C   0  0  0  0  0  0           0  0  0
    4.3841   -3.2765    0.0000 C   0  0  0  0  0  0           0  0  0
  7 10  2  0     0  0
  5  6  1  0     0  0
  8 11  2  0     0  0
  8 12  1  0     0  0
  6  7  1  0     0  0
  4 13  2  0     0  0
 13 17  1  0     0  0
  1  3  2  0     0  0
 16 14  1  0     0  0
  7  8  1  0     0  0
 14 15  2  0     0  0
 15  4  1  0     0  0
 16 17  2  0     0  0
  4  5  1  0     0  0
  5  9  2  0     0  0
  2  1  2  0     0  0
 17 18  1  0     0  0
 18  3  1  0     0  0
M  CHG  2   1   1   2  -1
M  END
>  <prID>
514

>  <IDDB>
165870

>  <pIC50_HIV_Integrase>
6.525061148

>  <Q>
-1.37429104

>  <Activity_Integrase>
Active_Integrase

NA
NA
NA
NA
$$$$

  Accelrys05311914322D 1   1.00000     0.00000     0

 18 18  0     0  0            999 V2000
    2.5661   -4.6286    0.0000 N   0  3  0  0  0  0           0  0  0
    1.5949   -4.6195    0.0000 N   0  5  0  0  0  0           0  0  0
    3.5701   -4.6079    0.0000 N   0  0  0  0  0  0           0  0  0
    6.3625   -3.8250    0.0000 C   0  0  0  0  0  0           0  0  0
    7.0417   -3.4292    0.0000 C   0  0  0  0  0  0           0  0  0
    7.7250   -3.8208    0.0000 C   0  0  0  0  0  0           0  0  0
    8.4042   -3.4250    0.0000 C   0  0  0  0  0  0           0  0  0
    9.0875   -3.8167    0.0000 C   0  0  0  0  0  0           0  0  0
    7.0399   -2.6417    0.0000 O   0  0  0  0  0  0           0  0  0
    8.4024   -2.6375    0.0000 O   0  0  0  0  0  0           0  0  0
    9.0901   -4.6083    0.0000 O   0  0  0  0  0  0           0  0  0
    9.7673   -3.4186    0.0000 O   0  0  0  0  0  0           0  0  0
    5.6786   -3.4279    0.0000 C   0  0  0  0  0  0           0  0  0
    5.6857   -5.0037    0.0000 C   0  0  0  0  0  0           0  0  0
    6.3656   -4.6062    0.0000 C   0  0  0  0  0  0           0  0  0
    4.9990   -4.6103    0.0000 C   0  0  0  0  0  0           0  0  0
    5.0042   -3.8254    0.0000 C   0  0  0  0  0  0           0  0  0
    4.2839   -5.0216    0.0000 C   0  0  0  0  0  0           0  0  0
  7 10  2  0     0  0
  5  6  1  0     0  0
  8 11  2  0     0  0
  8 12  1  0     0  0
  6  7  1  0     0  0
  4 13  2  0     0  0
 13 17  1  0     0  0
  1  3  2  0     0  0
 16 14  1  0     0  0
  7  8  1  0     0  0
 14 15  2  0     0  0
 15  4  1  0     0  0
 16 17  2  0     0  0
  4  5  1  0     0  0
  5  9  2  0     0  0
  2  1  2  0     0  0
 16 18  1  0     0  0
 18  3  1  0     0  0
M  CHG  2   1   1   2  -1
M  END
>  <prID>
515

>  <IDDB>
165871

>  <pIC50_HIV_Integrase>
5.214670165

>  <Q>
-1.381154762

>  <Activity_Integrase>
Inactive_Integrase

NA
NA
NA
NA
$$$$

  Accelrys05311914322D 1   1.00000     0.00000     0

 20 20  0     0  0            999 V2000
    2.9152   -4.1102    0.0000 N   0  3  0  0  0  0           0  0  0
    1.9440   -4.1012    0.0000 N   0  5  0  0  0  0           0  0  0
    3.9192   -4.0896    0.0000 N   0  0  0  0  0  0           0  0  0
    6.6333   -4.0875    0.0000 C   0  0  0  0  0  0           0  0  0
    7.3125   -3.6917    0.0000 C   0  0  0  0  0  0           0  0  0
    7.9958   -4.0833    0.0000 C   0  0  0  0  0  0           0  0  0
    8.6750   -3.6875    0.0000 C   0  0  0  0  0  0           0  0  0
    9.3583   -4.0792    0.0000 C   0  0  0  0  0  0           0  0  0
    7.3107   -2.9042    0.0000 O   0  0  0  0  0  0           0  0  0
    8.6732   -2.9000    0.0000 O   0  0  0  0  0  0           0  0  0
    9.3610   -4.8708    0.0000 O   0  0  0  0  0  0           0  0  0
   10.0382   -3.6811    0.0000 O   0  0  0  0  0  0           0  0  0
    5.9495   -3.6904    0.0000 C   0  0  0  0  0  0           0  0  0
    5.9565   -5.2662    0.0000 C   0  0  0  0  0  0           0  0  0
    6.6364   -4.8687    0.0000 C   0  0  0  0  0  0           0  0  0
    5.2699   -4.8728    0.0000 C   0  0  0  0  0  0           0  0  0
    5.2751   -4.0879    0.0000 C   0  0  0  0  0  0           0  0  0
    4.5966   -3.6973    0.0000 C   0  0  0  0  0  0           0  0  0
    4.5547   -5.2841    0.0000 O   0  0  0  0  0  0           0  0  0
    3.8409   -4.8704    0.0000 C   0  0  0  0  0  0           0  0  0
  8 11  2  0     0  0
  8 12  1  0     0  0
  6  7  1  0     0  0
  4 13  2  0     0  0
 13 17  1  0     0  0
  1  3  2  0     0  0
 16 14  1  0     0  0
  7  8  1  0     0  0
 14 15  2  0     0  0
 15  4  1  0     0  0
 16 17  2  0     0  0
  4  5  1  0     0  0
  5  9  2  0     0  0
  2  1  2  0     0  0
 17 18  1  0     0  0
 18  3  1  0     0  0
  7 10  2  0     0  0
 16 19  1  0     0  0
  5  6  1  0     0  0
 19 20  1  0     0  0
M  CHG  2   1   1   2  -1
M  END
>  <prID>
516

>  <IDDB>
165872

>  <pIC50_HIV_Integrase>
5.070581074

>  <Q>
-1.634585148

>  <Activity_Integrase>
Inactive_Integrase

NA
NA
NA
NA
$$$$

  Accelrys05311914322D 1   1.00000     0.00000     0

 20 20  0     0  0            999 V2000
    2.9152   -4.1102    0.0000 N   0  3  0  0  0  0           0  0  0
    1.9440   -4.1012    0.0000 N   0  5  0  0  0  0           0  0  0
    3.9192   -4.0896    0.0000 N   0  0  0  0  0  0           0  0  0
    6.6333   -4.0875    0.0000 C   0  0  0  0  0  0           0  0  0
    7.3125   -3.6917    0.0000 C   0  0  0  0  0  0           0  0  0
    7.9958   -4.0833    0.0000 C   0  0  0  0  0  0           0  0  0
    8.6750   -3.6875    0.0000 C   0  0  0  0  0  0           0  0  0
    9.3583   -4.0792    0.0000 C   0  0  0  0  0  0           0  0  0
    7.3107   -2.9042    0.0000 O   0  0  0  0  0  0           0  0  0
    8.6732   -2.9000    0.0000 O   0  0  0  0  0  0           0  0  0
    9.3610   -4.8708    0.0000 O   0  0  0  0  0  0           0  0  0
   10.0382   -3.6811    0.0000 O   0  0  0  0  0  0           0  0  0
    5.9495   -3.6904    0.0000 C   0  0  0  0  0  0           0  0  0
    5.9565   -5.2662    0.0000 C   0  0  0  0  0  0           0  0  0
    6.6364   -4.8687    0.0000 C   0  0  0  0  0  0           0  0  0
    5.2699   -4.8728    0.0000 C   0  0  0  0  0  0           0  0  0
    5.2751   -4.0879    0.0000 C   0  0  0  0  0  0           0  0  0
    4.5966   -3.6973    0.0000 C   0  0  0  0  0  0           0  0  0
    7.3528   -5.2778    0.0000 O   0  0  0  0  0  0           0  0  0
    7.3567   -6.1028    0.0000 C   0  0  0  0  0  0           0  0  0
  8 11  2  0     0  0
  8 12  1  0     0  0
  6  7  1  0     0  0
  4 13  2  0     0  0
 13 17  1  0     0  0
  1  3  2  0     0  0
 16 14  1  0     0  0
  7  8  1  0     0  0
 14 15  2  0     0  0
 15  4  1  0     0  0
 16 17  2  0     0  0
  4  5  1  0     0  0
  5  9  2  0     0  0
  2  1  2  0     0  0
 17 18  1  0     0  0
 18  3  1  0     0  0
  7 10  2  0     0  0
 15 19  1  0     0  0
  5  6  1  0     0  0
 19 20  1  0     0  0
M  CHG  2   1   1   2  -1
M  END
>  <prID>
517

>  <IDDB>
165873

>  <pIC50_HIV_Integrase>
4.744727495

>  <Q>
-1.63767843

>  <Activity_Integrase>
Inactive_Integrase

NA
NA
NA
NA
$$$$

  Accelrys05311914322D 1   1.00000     0.00000     0

 22 22  0     0  0            999 V2000
    2.8569   -3.9185    0.0000 N   0  3  0  0  0  0           0  0  0
    1.8856   -3.9095    0.0000 N   0  5  0  0  0  0           0  0  0
    3.8608   -3.8979    0.0000 N   0  0  0  0  0  0           0  0  0
    6.5750   -3.8958    0.0000 C   0  0  0  0  0  0           0  0  0
    7.2542   -3.5000    0.0000 C   0  0  0  0  0  0           0  0  0
    7.9375   -3.8917    0.0000 C   0  0  0  0  0  0           0  0  0
    8.6167   -3.4958    0.0000 C   0  0  0  0  0  0           0  0  0
    9.3000   -3.8875    0.0000 C   0  0  0  0  0  0           0  0  0
    7.2524   -2.7125    0.0000 O   0  0  0  0  0  0           0  0  0
    8.6149   -2.7083    0.0000 O   0  0  0  0  0  0           0  0  0
    9.3026   -4.6792    0.0000 O   0  0  0  0  0  0           0  0  0
    9.9798   -3.4894    0.0000 O   0  0  0  0  0  0           0  0  0
    5.8911   -3.4988    0.0000 C   0  0  0  0  0  0           0  0  0
    5.8982   -5.0745    0.0000 C   0  0  0  0  0  0           0  0  0
    6.5781   -4.6770    0.0000 C   0  0  0  0  0  0           0  0  0
    5.2115   -4.6811    0.0000 C   0  0  0  0  0  0           0  0  0
    5.2167   -3.8963    0.0000 C   0  0  0  0  0  0           0  0  0
    4.5383   -3.5057    0.0000 C   0  0  0  0  0  0           0  0  0
    7.2945   -5.0862    0.0000 O   0  0  0  0  0  0           0  0  0
    7.2983   -5.9112    0.0000 C   0  0  3  0  0  0           0  0  0
    8.0147   -6.3203    0.0000 C   0  0  0  0  0  0           0  0  0
    6.5858   -6.3270    0.0000 C   0  0  0  0  0  0           0  0  0
  8 12  1  0     0  0
  6  7  1  0     0  0
  4 13  2  0     0  0
 13 17  1  0     0  0
  1  3  2  0     0  0
 16 14  1  0     0  0
  7  8  1  0     0  0
 14 15  2  0     0  0
 15  4  1  0     0  0
 16 17  2  0     0  0
  4  5  1  0     0  0
  5  9  2  0     0  0
  2  1  2  0     0  0
 17 18  1  0     0  0
 18  3  1  0     0  0
  7 10  2  0     0  0
 15 19  1  0     0  0
  5  6  1  0     0  0
 19 20  1  0     0  0
  8 11  2  0     0  0
 20 21  1  0     0  0
 20 22  1  0     0  0
M  CHG  2   1   1   2  -1
M  END
>  <prID>
518

>  <IDDB>
165874

>  <pIC50_HIV_Integrase>
4.638272164

>  <Q>
-2.374572527

>  <Activity_Integrase>
Inactive_Integrase

NA
NA
NA
NA
$$$$

  Accelrys05311914322D 1   1.00000     0.00000     0

 18 18  0     0  0            999 V2000
    3.7983   -3.9271    0.0000 C   0  0  0  0  0  0           0  0  0
    6.5125   -3.9250    0.0000 C   0  0  0  0  0  0           0  0  0
    7.1917   -3.5292    0.0000 C   0  0  0  0  0  0           0  0  0
    7.8750   -3.9208    0.0000 C   0  0  0  0  0  0           0  0  0
    8.5542   -3.5250    0.0000 C   0  0  0  0  0  0           0  0  0
    9.2375   -3.9167    0.0000 C   0  0  0  0  0  0           0  0  0
    7.1899   -2.7417    0.0000 O   0  0  0  0  0  0           0  0  0
    8.5524   -2.7375    0.0000 O   0  0  0  0  0  0           0  0  0
    9.2401   -4.7083    0.0000 O   0  0  0  0  0  0           0  0  0
    9.9173   -3.5186    0.0000 O   0  0  0  0  0  0           0  0  0
    5.8286   -3.5279    0.0000 C   0  0  0  0  0  0           0  0  0
    5.8357   -5.1037    0.0000 C   0  0  0  0  0  0           0  0  0
    6.5156   -4.7062    0.0000 C   0  0  0  0  0  0           0  0  0
    5.1490   -4.7103    0.0000 C   0  0  0  0  0  0           0  0  0
    5.1542   -3.9254    0.0000 C   0  0  0  0  0  0           0  0  0
    4.4758   -3.5348    0.0000 C   0  0  0  0  0  0           0  0  0
    3.1199   -3.5364    0.0000 C   0  0  0  0  0  0           0  0  0
    2.4049   -3.0287    0.0000 N   0  0  0  0  0  0           0  0  0
  6 10  1  0     0  0
  5  6  1  0     0  0
  2 11  2  0     0  0
 11 15  1  0     0  0
  3  4  1  0     0  0
 14 12  1  0     0  0
  3  7  2  0     0  0
 12 13  2  0     0  0
 13  2  1  0     0  0
 14 15  2  0     0  0
  2  3  1  0     0  0
  5  8  2  0     0  0
  4  5  1  0     0  0
 15 16  1  0     0  0
 16  1  1  0     0  0
  6  9  2  0     0  0
  1 17  1  0     0  0
 17 18  3  0     0  0
M  END
>  <prID>
519

>  <IDDB>
165875

>  <pIC50_HIV_Integrase>
5.823908741

>  <Q>
-0.721158924

>  <Activity_Integrase>
Inactive_Integrase

NA
NA
NA
NA
$$$$

  Accelrys05311914322D 1   1.00000     0.00000     0

 35 37  0     0  0            999 V2000
    1.1230   -2.7007    0.0000 C   0  0  0  0  0  0           0  0  0
    1.8368   -2.2871    0.0000 C   0  0  0  0  0  0           0  0  0
    2.5519   -2.6985    0.0000 N   0  0  0  0  0  0           0  0  0
    1.8355   -1.4621    0.0000 O   0  0  0  0  0  0           0  0  0
    3.2657   -2.2849    0.0000 C   0  0  2  0  0  0           0  0  0
    3.9808   -2.6962    0.0000 C   0  0  0  0  0  0           0  0  0
    3.2561   -1.4599    0.0000 C   0  0  0  0  0  0           0  0  0
    3.9699   -1.0462    0.0000 C   0  0  0  0  0  0           0  0  0
    3.9686   -0.2212    0.0000 O   0  0  0  0  0  0           0  0  0
    4.6850   -1.4576    0.0000 O   0  0  0  0  0  0           0  0  0
    3.9821   -3.5212    0.0000 O   0  0  0  0  0  0           0  0  0
    4.6947   -2.2826    0.0000 N   0  0  0  0  0  0           0  0  0
    5.4098   -2.6940    0.0000 C   0  0  0  0  0  0           0  0  0
    6.1236   -2.2804    0.0000 C   0  0  0  0  0  0           0  0  0
    6.8387   -2.6918    0.0000 C   0  0  0  0  0  0           0  0  0
    6.8360   -3.5177    0.0000 C   0  0  0  0  0  0           0  0  0
    7.5503   -3.9290    0.0000 C   0  0  0  0  0  0           0  0  0
    8.2651   -3.5154    0.0000 C   0  0  0  0  0  0           0  0  0
    8.2611   -2.6861    0.0000 C   0  0  0  0  0  0           0  0  0
    7.5463   -2.2785    0.0000 C   0  0  0  0  0  0           0  0  0
    8.9735   -2.2700    0.0000 O   0  0  0  0  0  0           0  0  0
    8.9808   -3.9258    0.0000 O   0  0  0  0  0  0           0  0  0
    5.3988   -1.0440    0.0000 C   0  0  3  0  0  0           0  0  0
    6.1139   -1.4614    0.0000 C   0  0  0  0  0  0           0  0  0
    6.8256   -1.0513    0.0000 C   0  0  0  0  0  0           0  0  0
    6.8285   -0.2260    0.0000 C   0  0  0  0  0  0           0  0  0
    6.1136    0.1876    0.0000 C   0  0  0  0  0  0           0  0  0
    5.3957   -0.2242    0.0000 C   0  0  0  0  0  0           0  0  0
    0.4100   -2.2849    0.0000 C   0  0  0  0  0  0           0  0  0
   -0.3034   -2.6979    0.0000 C   0  0  0  0  0  0           0  0  0
   -0.3025   -3.5237    0.0000 C   0  0  0  0  0  0           0  0  0
    0.4176   -3.9350    0.0000 C   0  0  0  0  0  0           0  0  0
    1.1280   -3.5197    0.0000 C   0  0  0  0  0  0           0  0  0
   -1.0183   -2.2861    0.0000 O   0  0  0  0  0  0           0  0  0
   -1.0158   -3.9383    0.0000 O   0  0  0  0  0  0           0  0  0
 17 18  2  0     0  0
  3  5  1  0     0  0
 18 19  1  0     0  0
  8 10  1  0     0  0
 19 20  2  0     0  0
 20 15  1  0     0  0
  2  3  1  0     0  0
 19 21  1  0     0  0
  6 11  2  0     0  0
 18 22  1  0     0  0
  5  6  1  0     0  0
 10 23  1  0     0  0
 23 24  1  0     0  0
  6 12  1  0     0  0
  1  2  1  0     0  0
 12 13  1  0     0  0
  5  7  1  1     0  0
 13 14  1  0     0  0
 23 28  1  0     0  0
 24 25  1  0     0  0
 25 26  1  0     0  0
 26 27  1  0     0  0
 27 28  1  0     0  0
  2  4  2  0     0  0
  1 29  2  0     0  0
 14 15  1  0     0  0
 29 30  1  0     0  0
  7  8  1  0     0  0
 30 31  2  0     0  0
 15 16  2  0     0  0
 31 32  1  0     0  0
 32 33  2  0     0  0
 33  1  1  0     0  0
 16 17  1  0     0  0
 30 34  1  0     0  0
  8  9  2  0     0  0
 31 35  1  0     0  0
M  END
>  <prID>
520

>  <IDDB>
167875

>  <pIC50_HIV_Integrase>
4.468521083

>  <Q>
-6.548235792

>  <Activity_Integrase>
Inactive_Integrase

NA
NA
NA
NA
$$$$

  Accelrys05311914322D 1   1.00000     0.00000     0

 30 31  0     0  0            999 V2000
    6.0173   -2.0385    0.0000 C   0  0  0  0  0  0           0  0  0
    5.3014   -3.2760    0.0000 N   0  0  0  0  0  0           0  0  0
    6.0173   -2.8635    0.0000 C   0  0  1  0  0  0           0  0  0
    6.7331   -3.2760    0.0000 C   0  0  0  0  0  0           0  0  0
    7.4448   -2.8635    0.0000 C   0  0  0  0  0  0           0  0  0
    8.1607   -3.2760    0.0000 C   0  0  0  0  0  0           0  0  0
    8.8724   -2.8635    0.0000 C   0  0  0  0  0  0           0  0  0
    9.5882   -3.2760    0.0000 N   0  0  0  0  0  0           0  0  0
    5.3014   -1.6260    0.0000 O   0  0  0  0  0  0           0  0  0
    4.5855   -2.8635    0.0000 C   0  0  0  0  0  0           0  0  0
    3.8738   -3.2760    0.0000 C   0  0  0  0  0  0           0  0  0
    3.8738   -4.1010    0.0000 C   0  0  0  0  0  0           0  0  0
    3.1580   -4.5135    0.0000 C   0  0  0  0  0  0           0  0  0
    2.4421   -4.1010    0.0000 C   0  0  0  0  0  0           0  0  0
    2.4421   -3.2760    0.0000 C   0  0  0  0  0  0           0  0  0
    3.1580   -2.8635    0.0000 C   0  0  0  0  0  0           0  0  0
    4.5855   -2.0385    0.0000 O   0  0  0  0  0  0           0  0  0
    1.7304   -4.5135    0.0000 O   0  0  0  0  0  0           0  0  0
    3.1580   -5.3385    0.0000 O   0  0  0  0  0  0           0  0  0
   10.3024   -2.8629    0.0000 C   0  0  0  0  0  0           0  0  0
   11.0172   -3.2748    0.0000 C   0  0  0  0  0  0           0  0  0
   10.3017   -2.0379    0.0000 O   0  0  0  0  0  0           0  0  0
   11.0146   -4.0969    0.0000 C   0  0  0  0  0  0           0  0  0
   11.7286   -4.5087    0.0000 C   0  0  0  0  0  0           0  0  0
   12.4437   -4.0956    0.0000 C   0  0  0  0  0  0           0  0  0
   12.4403   -3.2663    0.0000 C   0  0  0  0  0  0           0  0  0
   11.7258   -2.8582    0.0000 C   0  0  0  0  0  0           0  0  0
   13.1590   -4.5065    0.0000 O   0  0  0  0  0  0           0  0  0
   13.1530   -2.8507    0.0000 O   0  0  0  0  0  0           0  0  0
    6.7316   -1.6257    0.0000 O   0  0  0  0  0  0           0  0  0
 12 13  2  0     0  0
 13 14  1  0     0  0
 14 15  2  0     0  0
 15 16  1  0     0  0
 11 16  2  0     0  0
 10 17  2  0     0  0
 14 18  1  0     0  0
 13 19  1  0     0  0
  2 10  1  0     0  0
  8 20  1  0     0  0
  2  3  1  0     0  0
 20 21  1  0     0  0
  1  3  1  0     0  0
 20 22  2  0     0  0
  3  4  1  6     0  0
 21 23  2  0     0  0
  4  5  1  0     0  0
 23 24  1  0     0  0
  5  6  1  0     0  0
 24 25  2  0     0  0
  6  7  1  0     0  0
 25 26  1  0     0  0
  7  8  1  0     0  0
 26 27  2  0     0  0
 27 21  1  0     0  0
  1  9  2  0     0  0
 25 28  1  0     0  0
 10 11  1  0     0  0
 26 29  1  0     0  0
 11 12  1  0     0  0
  1 30  1  0     0  0
M  END
>  <prID>
521

>  <IDDB>
167877

>  <pIC50_HIV_Integrase>
4.853871964

>  <Q>
-5.493768502

>  <Activity_Integrase>
Inactive_Integrase

NA
NA
NA
NA
$$$$

  Accelrys05311914332D 1   1.00000     0.00000     0

 44 46  0     0  0            999 V2000
    2.8703   -3.2852    0.0000 C   0  0  0  0  0  0           0  0  0
    3.5855   -3.6966    0.0000 C   0  0  0  0  0  0           0  0  0
    4.3034   -3.2829    0.0000 C   0  0  0  0  0  0           0  0  0
    5.0227   -3.6943    0.0000 N   0  0  0  0  0  0           0  0  0
    4.3021   -2.4538    0.0000 O   0  0  0  0  0  0           0  0  0
    5.7407   -3.2807    0.0000 C   0  0  2  0  0  0           0  0  0
    6.4600   -3.6921    0.0000 C   0  0  0  0  0  0           0  0  0
    5.7311   -2.4515    0.0000 C   0  0  0  0  0  0           0  0  0
    6.4613   -4.5212    0.0000 O   0  0  0  0  0  0           0  0  0
    7.1780   -3.2785    0.0000 N   0  0  0  0  0  0           0  0  0
    7.8973   -3.6898    0.0000 C   0  0  0  0  0  0           0  0  0
    8.6111   -3.2762    0.0000 C   0  0  0  0  0  0           0  0  0
    9.3304   -3.6876    0.0000 C   0  0  0  0  0  0           0  0  0
    9.3277   -4.5177    0.0000 C   0  0  0  0  0  0           0  0  0
   10.0461   -4.9332    0.0000 C   0  0  0  0  0  0           0  0  0
   10.7651   -4.5154    0.0000 C   0  0  0  0  0  0           0  0  0
   10.7611   -3.6819    0.0000 C   0  0  0  0  0  0           0  0  0
   10.0421   -3.2744    0.0000 C   0  0  0  0  0  0           0  0  0
   11.4777   -3.2658    0.0000 O   0  0  0  0  0  0           0  0  0
   11.4849   -4.9300    0.0000 O   0  0  0  0  0  0           0  0  0
    2.1523   -3.6988    0.0000 C   0  0  0  0  0  0           0  0  0
    1.4373   -3.2839    0.0000 C   0  0  0  0  0  0           0  0  0
    0.7198   -3.6969    0.0000 C   0  0  0  0  0  0           0  0  0
    0.7206   -4.5269    0.0000 C   0  0  0  0  0  0           0  0  0
    1.4449   -4.9423    0.0000 C   0  0  0  0  0  0           0  0  0
    2.1595   -4.5228    0.0000 C   0  0  0  0  0  0           0  0  0
    0.0032   -4.9456    0.0000 O   0  0  0  0  0  0           0  0  0
    0.0007   -3.2851    0.0000 O   0  0  0  0  0  0           0  0  0
    6.4449   -2.0266    0.0000 C   0  0  0  0  0  0           0  0  0
    6.4352   -1.1974    0.0000 C   0  0  0  0  0  0           0  0  0
    7.1490   -0.7766    0.0000 C   0  0  0  0  0  0           0  0  0
    7.1394    0.0525    0.0000 N   0  0  0  0  0  0           0  0  0
    7.8490    0.4732    0.0000 C   0  0  0  0  0  0           0  0  0
    7.8394    1.2982    0.0000 O   0  0  0  0  0  0           0  0  0
    8.5682    0.0691    0.0000 C   0  0  0  0  0  0           0  0  0
    9.2779    0.4898    0.0000 C   0  0  0  0  0  0           0  0  0
    9.9971    0.0857    0.0000 C   0  0  0  0  0  0           0  0  0
   10.0026   -0.7386    0.0000 C   0  0  0  0  0  0           0  0  0
   10.7210   -1.1427    0.0000 C   0  0  0  0  0  0           0  0  0
   11.4316   -0.7218    0.0000 C   0  0  0  0  0  0           0  0  0
   11.4193    0.1073    0.0000 C   0  0  0  0  0  0           0  0  0
   10.7004    0.5077    0.0000 C   0  0  0  0  0  0           0  0  0
   12.1514   -1.1251    0.0000 O   0  0  0  0  0  0           0  0  0
   12.1275    0.5306    0.0000 O   0  0  0  0  0  0           0  0  0
 21 22  2  0     0  0
  4  6  1  0     0  0
 22 23  1  0     0  0
 11 12  1  0     0  0
 23 24  2  0     0  0
  1  2  2  0     0  0
 24 25  1  0     0  0
 12 13  1  0     0  0
 25 26  2  0     0  0
 26 21  1  0     0  0
  6  7  1  0     0  0
 24 27  1  0     0  0
 13 14  2  0     0  0
 23 28  1  0     0  0
  3  4  1  0     0  0
  8 29  1  0     0  0
 14 15  1  0     0  0
 29 30  1  0     0  0
  6  8  1  1     0  0
 30 31  1  0     0  0
 15 16  2  0     0  0
 31 32  1  0     0  0
 32 33  1  0     0  0
 16 17  1  0     0  0
 33 34  2  0     0  0
  7  9  2  0     0  0
 33 35  1  0     0  0
 17 18  2  0     0  0
 35 36  2  0     0  0
 18 13  1  0     0  0
 36 37  1  0     0  0
  3  5  2  0     0  0
 37 38  2  0     0  0
 17 19  1  0     0  0
 38 39  1  0     0  0
  7 10  1  0     0  0
 39 40  2  0     0  0
 16 20  1  0     0  0
 40 41  1  0     0  0
  2  3  1  0     0  0
 41 42  2  0     0  0
 42 37  1  0     0  0
  1 21  1  0     0  0
 40 43  1  0     0  0
 10 11  1  0     0  0
 41 44  1  0     0  0
M  END
>  <prID>
522

>  <IDDB>
167879

>  <pIC50_HIV_Integrase>
6.292429824

>  <Q>
-6.261789334

>  <Activity_Integrase>
Active_Integrase

NA
NA
NA
NA
$$$$

  Accelrys05311914322D 1   1.00000     0.00000     0

 41 43  0     0  0            999 V2000
    2.8703   -3.2852    0.0000 C   0  0  0  0  0  0           0  0  0
    3.5855   -3.6966    0.0000 C   0  0  0  0  0  0           0  0  0
    4.3034   -3.2829    0.0000 C   0  0  0  0  0  0           0  0  0
    5.0227   -3.6943    0.0000 N   0  0  0  0  0  0           0  0  0
    4.3021   -2.4538    0.0000 O   0  0  0  0  0  0           0  0  0
    5.7407   -3.2807    0.0000 C   0  0  2  0  0  0           0  0  0
    6.4600   -3.6921    0.0000 C   0  0  0  0  0  0           0  0  0
    5.7311   -2.4515    0.0000 C   0  0  0  0  0  0           0  0  0
    6.4613   -4.5212    0.0000 O   0  0  0  0  0  0           0  0  0
    2.1523   -3.6988    0.0000 C   0  0  0  0  0  0           0  0  0
    1.4373   -3.2839    0.0000 C   0  0  0  0  0  0           0  0  0
    0.7198   -3.6969    0.0000 C   0  0  0  0  0  0           0  0  0
    0.7206   -4.5269    0.0000 C   0  0  0  0  0  0           0  0  0
    1.4449   -4.9423    0.0000 C   0  0  0  0  0  0           0  0  0
    2.1595   -4.5228    0.0000 C   0  0  0  0  0  0           0  0  0
    0.0032   -4.9456    0.0000 O   0  0  0  0  0  0           0  0  0
    0.0007   -3.2851    0.0000 O   0  0  0  0  0  0           0  0  0
    6.4449   -2.0266    0.0000 C   0  0  0  0  0  0           0  0  0
    6.4352   -1.1974    0.0000 C   0  0  0  0  0  0           0  0  0
    7.1490   -0.7766    0.0000 C   0  0  0  0  0  0           0  0  0
    7.1394    0.0525    0.0000 N   0  0  0  0  0  0           0  0  0
    7.8490    0.4732    0.0000 C   0  0  0  0  0  0           0  0  0
    7.8394    1.2982    0.0000 O   0  0  0  0  0  0           0  0  0
    8.5682    0.0691    0.0000 C   0  0  0  0  0  0           0  0  0
    9.2779    0.4898    0.0000 C   0  0  0  0  0  0           0  0  0
    9.9971    0.0857    0.0000 C   0  0  0  0  0  0           0  0  0
   10.0026   -0.7386    0.0000 C   0  0  0  0  0  0           0  0  0
   10.7210   -1.1427    0.0000 C   0  0  0  0  0  0           0  0  0
   11.4316   -0.7218    0.0000 C   0  0  0  0  0  0           0  0  0
   11.4193    0.1073    0.0000 C   0  0  0  0  0  0           0  0  0
   10.7004    0.5077    0.0000 C   0  0  0  0  0  0           0  0  0
   12.1514   -1.1251    0.0000 O   0  0  0  0  0  0           0  0  0
   12.1275    0.5306    0.0000 O   0  0  0  0  0  0           0  0  0
    7.1733   -3.2776    0.0000 O   0  0  0  0  0  0           0  0  0
    7.8889   -3.6881    0.0000 C   0  0  0  0  0  0           0  0  0
    8.6022   -3.2735    0.0000 C   0  0  0  0  0  0           0  0  0
    9.3140   -3.6876    0.0000 C   0  0  0  0  0  0           0  0  0
   10.0268   -3.2737    0.0000 C   0  0  0  0  0  0           0  0  0
   10.0249   -2.4479    0.0000 C   0  0  0  0  0  0           0  0  0
    9.3042   -2.0376    0.0000 C   0  0  0  0  0  0           0  0  0
    8.5944   -2.4537    0.0000 C   0  0  0  0  0  0           0  0  0
  2  3  1  0     0  0
 20 21  1  0     0  0
 10 11  2  0     0  0
 21 22  1  0     0  0
  4  6  1  0     0  0
 22 23  2  0     0  0
 11 12  1  0     0  0
 22 24  1  0     0  0
  1  2  2  0     0  0
 24 25  2  0     0  0
 12 13  2  0     0  0
 25 26  1  0     0  0
  6  7  1  0     0  0
 26 27  2  0     0  0
 13 14  1  0     0  0
 27 28  1  0     0  0
  3  4  1  0     0  0
 28 29  2  0     0  0
 14 15  2  0     0  0
 29 30  1  0     0  0
 15 10  1  0     0  0
 30 31  2  0     0  0
 31 26  1  0     0  0
  6  8  1  1     0  0
 29 32  1  0     0  0
 13 16  1  0     0  0
 30 33  1  0     0  0
  7 34  1  0     0  0
 12 17  1  0     0  0
 34 35  1  0     0  0
  7  9  2  0     0  0
 35 36  1  0     0  0
  8 18  1  0     0  0
 36 37  2  0     0  0
  3  5  2  0     0  0
 37 38  1  0     0  0
 18 19  1  0     0  0
 38 39  2  0     0  0
  1 10  1  0     0  0
 39 40  1  0     0  0
 19 20  1  0     0  0
 40 41  2  0     0  0
 41 36  1  0     0  0
M  END
>  <prID>
523

>  <IDDB>
167880

>  <pIC50_HIV_Integrase>
5.568636236

>  <Q>
-3.92763988

>  <Activity_Integrase>
Inactive_Integrase

NA
NA
NA
NA
$$$$

  Accelrys05311914322D 1   1.00000     0.00000     0

 50 54  0     0  0            999 V2000
   10.6191   -0.4515    0.0000 C   0  0  0  0  0  0           0  0  0
    9.9112   -0.0232    0.0000 C   0  0  0  0  0  0           0  0  0
    9.1885   -0.4221    0.0000 C   0  0  0  0  0  0           0  0  0
    9.1724   -1.2491    0.0000 C   0  0  0  0  0  0           0  0  0
    9.8851   -1.6756    0.0000 C   0  0  0  0  0  0           0  0  0
   10.6049   -1.2742    0.0000 C   0  0  0  0  0  0           0  0  0
    2.8703   -3.2852    0.0000 C   0  0  0  0  0  0           0  0  0
    3.5855   -3.6966    0.0000 C   0  0  0  0  0  0           0  0  0
    4.3034   -3.2829    0.0000 C   0  0  0  0  0  0           0  0  0
    5.0227   -3.6943    0.0000 N   0  0  0  0  0  0           0  0  0
    4.3021   -2.4538    0.0000 O   0  0  0  0  0  0           0  0  0
    5.7407   -3.2807    0.0000 C   0  0  2  0  0  0           0  0  0
    6.4600   -3.6921    0.0000 C   0  0  0  0  0  0           0  0  0
    5.7311   -2.4515    0.0000 C   0  0  0  0  0  0           0  0  0
    6.4613   -4.5212    0.0000 O   0  0  0  0  0  0           0  0  0
    2.1523   -3.6988    0.0000 C   0  0  0  0  0  0           0  0  0
    1.4373   -3.2839    0.0000 C   0  0  0  0  0  0           0  0  0
    0.7198   -3.6969    0.0000 C   0  0  0  0  0  0           0  0  0
    0.7206   -4.5269    0.0000 C   0  0  0  0  0  0           0  0  0
    1.4449   -4.9423    0.0000 C   0  0  0  0  0  0           0  0  0
    2.1595   -4.5228    0.0000 C   0  0  0  0  0  0           0  0  0
    0.0032   -4.9456    0.0000 O   0  0  0  0  0  0           0  0  0
    0.0007   -3.2851    0.0000 O   0  0  0  0  0  0           0  0  0
    6.4449   -2.0266    0.0000 C   0  0  0  0  0  0           0  0  0
    6.4352   -1.1974    0.0000 O   0  0  0  0  0  0           0  0  0
    7.1644   -2.4301    0.0000 N   0  0  0  0  0  0           0  0  0
    7.8737   -2.0087    0.0000 C   0  0  3  0  0  0           0  0  0
    8.5933   -2.4122    0.0000 C   0  0  0  0  0  0           0  0  0
    7.8634   -1.1837    0.0000 C   0  0  0  0  0  0           0  0  0
    8.5751   -0.7651    0.0000 C   0  0  0  0  0  0           0  0  0
    8.5651    0.0591    0.0000 C   0  0  0  0  0  0           0  0  0
    7.8450    0.4634    0.0000 C   0  0  0  0  0  0           0  0  0
    7.1334    0.0375    0.0000 C   0  0  0  0  0  0           0  0  0
    7.1469   -0.7852    0.0000 C   0  0  0  0  0  0           0  0  0
    9.3179   -3.6379    0.0000 C   0  0  0  0  0  0           0  0  0
   10.0282   -3.2164    0.0000 C   0  0  0  0  0  0           0  0  0
   10.0151   -2.3872    0.0000 C   0  0  0  0  0  0           0  0  0
    9.2959   -1.9875    0.0000 C   0  0  0  0  0  0           0  0  0
    7.1733   -3.2776    0.0000 N   0  0  0  0  0  0           0  0  0
    7.8889   -3.6881    0.0000 C   0  0  0  0  0  0           0  0  0
    8.6022   -3.2735    0.0000 C   0  0  0  0  0  0           0  0  0
    7.8913   -4.5130    0.0000 C   0  0  0  0  0  0           0  0  0
    8.6069   -4.9235    0.0000 C   0  0  0  0  0  0           0  0  0
    8.6037   -5.7469    0.0000 C   0  0  0  0  0  0           0  0  0
    9.3185   -6.1573    0.0000 C   0  0  0  0  0  0           0  0  0
   10.0328   -5.7428    0.0000 C   0  0  0  0  0  0           0  0  0
   10.0278   -4.9135    0.0000 C   0  0  0  0  0  0           0  0  0
    9.3124   -4.5068    0.0000 C   0  0  0  0  0  0           0  0  0
   10.7396   -4.4965    0.0000 O   0  0  0  0  0  0           0  0  0
   10.7490   -6.1523    0.0000 O   0  0  0  0  0  0           0  0  0
 24 25  2  0     0  0
 12 13  1  0     0  0
 24 26  1  0     0  0
  1  2  2  0     0  0
 26 27  1  0     0  0
 12 14  1  1     0  0
 27 28  1  0     0  0
  3  4  2  0     0  0
 27 29  1  0     0  0
 27  4  1  0     0  0
 13 15  2  0     0  0
 29 30  2  0     0  0
  7  8  2  0     0  0
 30 31  1  0     0  0
  7 16  1  0     0  0
 31 32  2  0     0  0
 32 33  1  0     0  0
 16 17  2  0     0  0
 33 34  2  0     0  0
 34 29  1  0     0  0
 28 41  2  0     0  0
  8  9  1  0     0  0
 41 35  1  0     0  0
 17 18  1  0     0  0
 35 36  2  0     0  0
  4  5  1  0     0  0
 36 37  1  0     0  0
 18 19  2  0     0  0
 37 38  2  0     0  0
 38 28  1  0     0  0
  9 10  1  0     0  0
 13 39  1  0     0  0
 19 20  1  0     0  0
 39 40  1  0     0  0
  2  3  1  0     0  0
 20 21  2  0     0  0
 40 42  1  0     0  0
 21 16  1  0     0  0
 42 43  1  0     0  0
  9 11  2  0     0  0
 43 44  2  0     0  0
 19 22  1  0     0  0
 44 45  1  0     0  0
  5  6  2  0     0  0
 45 46  2  0     0  0
 18 23  1  0     0  0
 46 47  1  0     0  0
 10 12  1  0     0  0
 47 48  2  0     0  0
 48 43  1  0     0  0
 14 24  1  0     0  0
 47 49  1  0     0  0
  6  1  1  0     0  0
 46 50  1  0     0  0
M  END
>  <prID>
524

>  <IDDB>
167881

>  <pIC50_HIV_Integrase>
5.301029996

>  <Q>
-3.187982941

>  <Activity_Integrase>
Inactive_Integrase

NA
NA
NA
NA
$$$$

  Accelrys05311914322D 1   1.00000     0.00000     0

 48 52  0     0  0            999 V2000
   10.6191   -0.4515    0.0000 C   0  0  0  0  0  0           0  0  0
    9.9112   -0.0232    0.0000 C   0  0  0  0  0  0           0  0  0
    9.1885   -0.4221    0.0000 C   0  0  0  0  0  0           0  0  0
    9.1724   -1.2491    0.0000 C   0  0  0  0  0  0           0  0  0
    9.8851   -1.6756    0.0000 C   0  0  0  0  0  0           0  0  0
   10.6049   -1.2742    0.0000 C   0  0  0  0  0  0           0  0  0
    3.5855   -3.6966    0.0000 C   0  0  0  0  0  0           0  0  0
    4.3034   -3.2829    0.0000 C   0  0  0  0  0  0           0  0  0
    5.0227   -3.6943    0.0000 N   0  0  0  0  0  0           0  0  0
    4.3021   -2.4538    0.0000 O   0  0  0  0  0  0           0  0  0
    5.7407   -3.2807    0.0000 C   0  0  2  0  0  0           0  0  0
    6.4600   -3.6921    0.0000 C   0  0  0  0  0  0           0  0  0
    5.7311   -2.4515    0.0000 C   0  0  0  0  0  0           0  0  0
    6.4613   -4.5212    0.0000 O   0  0  0  0  0  0           0  0  0
    6.4449   -2.0266    0.0000 C   0  0  0  0  0  0           0  0  0
    6.4352   -1.1974    0.0000 O   0  0  0  0  0  0           0  0  0
    7.1644   -2.4301    0.0000 N   0  0  0  0  0  0           0  0  0
    7.8737   -2.0087    0.0000 C   0  0  3  0  0  0           0  0  0
    8.5933   -2.4122    0.0000 C   0  0  0  0  0  0           0  0  0
    7.8634   -1.1837    0.0000 C   0  0  0  0  0  0           0  0  0
    8.5751   -0.7651    0.0000 C   0  0  0  0  0  0           0  0  0
    8.5651    0.0591    0.0000 C   0  0  0  0  0  0           0  0  0
    7.8450    0.4634    0.0000 C   0  0  0  0  0  0           0  0  0
    7.1334    0.0375    0.0000 C   0  0  0  0  0  0           0  0  0
    7.1469   -0.7852    0.0000 C   0  0  0  0  0  0           0  0  0
    9.3179   -3.6379    0.0000 C   0  0  0  0  0  0           0  0  0
   10.0282   -3.2164    0.0000 C   0  0  0  0  0  0           0  0  0
   10.0151   -2.3872    0.0000 C   0  0  0  0  0  0           0  0  0
    9.2959   -1.9875    0.0000 C   0  0  0  0  0  0           0  0  0
    7.1733   -3.2776    0.0000 N   0  0  0  0  0  0           0  0  0
    7.8889   -3.6881    0.0000 C   0  0  0  0  0  0           0  0  0
    8.6022   -3.2735    0.0000 C   0  0  0  0  0  0           0  0  0
    7.8913   -4.5130    0.0000 C   0  0  0  0  0  0           0  0  0
    8.6069   -4.9235    0.0000 C   0  0  0  0  0  0           0  0  0
    8.6037   -5.7469    0.0000 C   0  0  0  0  0  0           0  0  0
    9.3185   -6.1573    0.0000 C   0  0  0  0  0  0           0  0  0
   10.0328   -5.7428    0.0000 C   0  0  0  0  0  0           0  0  0
   10.0278   -4.9135    0.0000 C   0  0  0  0  0  0           0  0  0
    9.3124   -4.5068    0.0000 C   0  0  0  0  0  0           0  0  0
   10.7396   -4.4965    0.0000 O   0  0  0  0  0  0           0  0  0
   10.7490   -6.1523    0.0000 O   0  0  0  0  0  0           0  0  0
    2.8704   -3.2771    0.0000 C   0  0  0  0  0  0           0  0  0
    2.1529   -3.6901    0.0000 C   0  0  0  0  0  0           0  0  0
    2.1517   -4.5196    0.0000 C   0  0  0  0  0  0           0  0  0
    2.8739   -4.9344    0.0000 C   0  0  0  0  0  0           0  0  0
    3.5885   -4.5191    0.0000 C   0  0  0  0  0  0           0  0  0
    1.4390   -3.2766    0.0000 O   0  0  0  0  0  0           0  0  0
    1.4374   -4.9323    0.0000 O   0  0  0  0  0  0           0  0  0
 23 24  1  0     0  0
  6  1  1  0     0  0
 24 25  2  0     0  0
 25 20  1  0     0  0
 19 32  2  0     0  0
 11 13  1  1     0  0
 32 26  1  0     0  0
  1  2  2  0     0  0
 26 27  2  0     0  0
 12 14  2  0     0  0
 27 28  1  0     0  0
  3  4  2  0     0  0
 28 29  2  0     0  0
 29 19  1  0     0  0
 13 15  1  0     0  0
 12 30  1  0     0  0
  7  8  1  0     0  0
 30 31  1  0     0  0
 15 16  2  0     0  0
 31 33  1  0     0  0
 15 17  1  0     0  0
 33 34  1  0     0  0
  8  9  1  0     0  0
 34 35  2  0     0  0
 17 18  1  0     0  0
 35 36  1  0     0  0
  4  5  1  0     0  0
 36 37  2  0     0  0
 18 19  1  0     0  0
 37 38  1  0     0  0
  8 10  2  0     0  0
 38 39  2  0     0  0
 39 34  1  0     0  0
 18 20  1  0     0  0
 38 40  1  0     0  0
 18  4  1  0     0  0
 37 41  1  0     0  0
  2  3  1  0     0  0
  7 42  2  0     0  0
 20 21  2  0     0  0
 42 43  1  0     0  0
  9 11  1  0     0  0
 43 44  2  0     0  0
 21 22  1  0     0  0
 44 45  1  0     0  0
  5  6  2  0     0  0
 45 46  2  0     0  0
 46  7  1  0     0  0
 22 23  2  0     0  0
 43 47  1  0     0  0
 11 12  1  0     0  0
 44 48  1  0     0  0
M  END
>  <prID>
525

>  <IDDB>
167882

>  <pIC50_HIV_Integrase>
5.301029996

>  <Q>
-3.441545287

>  <Activity_Integrase>
Inactive_Integrase

NA
NA
NA
NA
$$$$

  Accelrys05311914322D 1   1.00000     0.00000     0

 37 39  0     0  0            999 V2000
    3.5438   -4.3632    0.0000 C   0  0  0  0  0  0           0  0  0
    4.2493   -3.9579    0.0000 C   0  0  0  0  0  0           0  0  0
    4.9602   -4.3610    0.0000 N   0  0  0  0  0  0           0  0  0
    4.2480   -3.1413    0.0000 O   0  0  0  0  0  0           0  0  0
    5.6657   -3.9557    0.0000 C   0  0  2  0  0  0           0  0  0
    6.3767   -4.3587    0.0000 C   0  0  0  0  0  0           0  0  0
    5.6561   -3.1390    0.0000 C   0  0  3  0  0  0           0  0  0
    6.3780   -5.1754    0.0000 O   0  0  0  0  0  0           0  0  0
    6.3615   -2.7182    0.0000 O   0  0  0  0  0  0           0  0  0
    7.0775   -3.9526    0.0000 N   0  0  0  0  0  0           0  0  0
    7.7848   -4.3547    0.0000 C   0  0  0  0  0  0           0  0  0
    7.7871   -5.1672    0.0000 C   0  0  0  0  0  0           0  0  0
    8.4902   -5.5735    0.0000 C   0  0  0  0  0  0           0  0  0
    8.4870   -6.3844    0.0000 C   0  0  0  0  0  0           0  0  0
    9.1893   -6.7865    0.0000 C   0  0  0  0  0  0           0  0  0
    9.8953   -6.3803    0.0000 C   0  0  0  0  0  0           0  0  0
    9.8903   -5.5635    0.0000 C   0  0  0  0  0  0           0  0  0
    9.1833   -5.1610    0.0000 C   0  0  0  0  0  0           0  0  0
   10.5896   -5.1506    0.0000 O   0  0  0  0  0  0           0  0  0
   10.5990   -6.7815    0.0000 O   0  0  0  0  0  0           0  0  0
    4.9490   -2.7397    0.0000 C   0  0  0  0  0  0           0  0  0
    6.3505   -1.9058    0.0000 C   0  0  0  0  0  0           0  0  0
    7.0468   -1.4921    0.0000 C   0  0  0  0  0  0           0  0  0
    7.7572   -1.8902    0.0000 C   0  0  0  0  0  0           0  0  0
    8.4531   -1.4772    0.0000 C   0  0  0  0  0  0           0  0  0
    8.4424   -0.6639    0.0000 C   0  0  0  0  0  0           0  0  0
    7.7300   -0.2654    0.0000 C   0  0  0  0  0  0           0  0  0
    7.0329   -0.6849    0.0000 C   0  0  0  0  0  0           0  0  0
    2.8302   -3.9492    0.0000 C   0  0  0  0  0  0           0  0  0
    2.1148   -4.3601    0.0000 C   0  0  0  0  0  0           0  0  0
    1.4045   -3.9420    0.0000 C   0  0  0  0  0  0           0  0  0
    0.6896   -4.3523    0.0000 C   0  0  0  0  0  0           0  0  0
    0.6874   -5.1782    0.0000 C   0  0  0  0  0  0           0  0  0
    1.4060   -5.5921    0.0000 C   0  0  0  0  0  0           0  0  0
    2.1179   -5.1794    0.0000 C   0  0  0  0  0  0           0  0  0
   -0.0238   -3.9379    0.0000 O   0  0  0  0  0  0           0  0  0
   -0.0274   -5.5901    0.0000 O   0  0  0  0  0  0           0  0  0
  3  5  1  0     0  0
 17 19  1  0     0  0
  6 10  1  0     0  0
 16 20  1  0     0  0
  2  3  1  0     0  0
  7 21  1  0     0  0
 10 11  1  0     0  0
  9 22  1  0     0  0
  5  6  1  0     0  0
 22 23  1  0     0  0
 11 12  1  0     0  0
 23 24  2  0     0  0
  1  2  1  0     0  0
 24 25  1  0     0  0
 12 13  1  0     0  0
 25 26  2  0     0  0
  5  7  1  1     0  0
 26 27  1  0     0  0
 13 14  2  0     0  0
 27 28  2  0     0  0
 28 23  1  0     0  0
  2  4  2  0     0  0
  1 29  2  0     0  0
 14 15  1  0     0  0
 29 30  1  0     0  0
  6  8  2  0     0  0
 30 31  2  0     0  0
 15 16  2  0     0  0
 31 32  1  0     0  0
 32 33  2  0     0  0
 16 17  1  0     0  0
 33 34  1  0     0  0
  7  9  1  0     0  0
 34 35  2  0     0  0
 35 30  1  0     0  0
 17 18  2  0     0  0
 32 36  1  0     0  0
 18 13  1  0     0  0
 33 37  1  0     0  0
M  END
>  <prID>
526

>  <IDDB>
167884

>  <pIC50_HIV_Integrase>
5.301029996

>  <Q>
-3.958992238

>  <Activity_Integrase>
Inactive_Integrase

NA
NA
NA
NA
$$$$

  Accelrys05311914322D 1   1.00000     0.00000     0

 43 45  0     0  0            999 V2000
    3.4396   -5.2799    0.0000 C   0  0  0  0  0  0           0  0  0
    4.1826   -4.8538    0.0000 C   0  0  0  0  0  0           0  0  0
    4.9227   -5.2777    0.0000 N   0  0  0  0  0  0           0  0  0
    4.1813   -3.9996    0.0000 O   0  0  0  0  0  0           0  0  0
    5.6615   -4.8515    0.0000 C   0  0  2  0  0  0           0  0  0
    6.4058   -5.2754    0.0000 C   0  0  0  0  0  0           0  0  0
    5.6519   -3.9974    0.0000 C   0  0  0  0  0  0           0  0  0
    6.4071   -6.1296    0.0000 O   0  0  0  0  0  0           0  0  0
    7.1400   -4.8484    0.0000 N   0  0  0  0  0  0           0  0  0
    7.8806   -5.2714    0.0000 C   0  0  0  0  0  0           0  0  0
    7.8829   -6.1214    0.0000 C   0  0  0  0  0  0           0  0  0
    8.6194   -6.5444    0.0000 C   0  0  0  0  0  0           0  0  0
    8.6162   -7.3969    0.0000 C   0  0  0  0  0  0           0  0  0
    9.3518   -7.8198    0.0000 C   0  0  0  0  0  0           0  0  0
   10.0911   -7.3928    0.0000 C   0  0  0  0  0  0           0  0  0
   10.0861   -6.5343    0.0000 C   0  0  0  0  0  0           0  0  0
    9.3458   -6.1152    0.0000 C   0  0  0  0  0  0           0  0  0
   10.8188   -6.1048    0.0000 O   0  0  0  0  0  0           0  0  0
   10.8281   -7.8148    0.0000 O   0  0  0  0  0  0           0  0  0
    2.7047   -4.8542    0.0000 C   0  0  0  0  0  0           0  0  0
    6.3866   -3.5641    0.0000 C   0  0  0  0  0  0           0  0  0
    6.3770   -2.7142    0.0000 C   0  0  0  0  0  0           0  0  0
    7.1074   -2.2767    0.0000 N   0  0  0  0  0  0           0  0  0
    1.9897   -5.2657    0.0000 C   0  0  0  0  0  0           0  0  0
    1.2801   -4.8490    0.0000 C   0  0  0  0  0  0           0  0  0
    0.5655   -5.2598    0.0000 C   0  0  0  0  0  0           0  0  0
    0.5639   -6.0857    0.0000 C   0  0  0  0  0  0           0  0  0
    1.2828   -6.4990    0.0000 C   0  0  0  0  0  0           0  0  0
    1.9945   -6.0859    0.0000 C   0  0  0  0  0  0           0  0  0
   -0.1482   -4.8460    0.0000 O   0  0  0  0  0  0           0  0  0
   -0.1506   -6.4981    0.0000 O   0  0  0  0  0  0           0  0  0
    7.8284   -2.6778    0.0000 C   0  0  0  0  0  0           0  0  0
    8.5362   -2.2539    0.0000 C   0  0  0  0  0  0           0  0  0
    7.8416   -3.5027    0.0000 O   0  0  0  0  0  0           0  0  0
    9.2572   -2.6549    0.0000 C   0  0  0  0  0  0           0  0  0
    9.9650   -2.2311    0.0000 C   0  0  0  0  0  0           0  0  0
   10.6826   -2.6363    0.0000 C   0  0  0  0  0  0           0  0  0
   11.3900   -2.2131    0.0000 C   0  0  0  0  0  0           0  0  0
   11.3772   -1.3873    0.0000 C   0  0  0  0  0  0           0  0  0
   10.6512   -0.9866    0.0000 C   0  0  0  0  0  0           0  0  0
    9.9469   -1.4120    0.0000 C   0  0  0  0  0  0           0  0  0
   12.0844   -0.9625    0.0000 O   0  0  0  0  0  0           0  0  0
   10.6351   -0.1617    0.0000 O   0  0  0  0  0  0           0  0  0
 10 11  1  0     0  0
 21 22  1  0     0  0
  5  6  1  0     0  0
 22 23  1  0     0  0
 11 12  1  0     0  0
 20 24  1  0     0  0
  1  2  1  0     0  0
 24 25  2  0     0  0
 12 13  2  0     0  0
 25 26  1  0     0  0
  5  7  1  1     0  0
 26 27  2  0     0  0
 13 14  1  0     0  0
 27 28  1  0     0  0
  2  4  2  0     0  0
 28 29  2  0     0  0
 29 24  1  0     0  0
 14 15  2  0     0  0
 26 30  1  0     0  0
  6  8  2  0     0  0
 27 31  1  0     0  0
 15 16  1  0     0  0
 23 32  1  0     0  0
 32 33  1  0     0  0
 16 17  2  0     0  0
 32 34  2  0     0  0
 17 12  1  0     0  0
 33 35  2  0     0  0
  6  9  1  0     0  0
 35 36  1  0     0  0
 16 18  1  0     0  0
 36 37  2  0     0  0
  3  5  1  0     0  0
 37 38  1  0     0  0
 15 19  1  0     0  0
 38 39  2  0     0  0
  9 10  1  0     0  0
 39 40  1  0     0  0
  1 20  2  0     0  0
 40 41  2  0     0  0
 41 36  1  0     0  0
  2  3  1  0     0  0
 39 42  1  0     0  0
  7 21  1  0     0  0
 40 43  1  0     0  0
M  END
>  <prID>
527

>  <IDDB>
167885

>  <pIC50_HIV_Integrase>
6.060480747

>  <Q>
-6.003917539

>  <Activity_Integrase>
Active_Integrase

NA
NA
NA
NA
$$$$

  Accelrys05311914322D 1   1.00000     0.00000     0

 48 52  0     0  0            999 V2000
    3.4688   -4.6257    0.0000 C   0  0  0  0  0  0           0  0  0
    4.1993   -4.2038    0.0000 C   0  0  0  0  0  0           0  0  0
    4.9352   -4.6235    0.0000 N   0  0  0  0  0  0           0  0  0
    4.1980   -3.3579    0.0000 O   0  0  0  0  0  0           0  0  0
    5.6699   -4.2015    0.0000 C   0  0  2  0  0  0           0  0  0
    6.4017   -4.6212    0.0000 C   0  0  0  0  0  0           0  0  0
    5.6603   -3.3557    0.0000 C   0  0  0  0  0  0           0  0  0
    6.4030   -5.4671    0.0000 O   0  0  0  0  0  0           0  0  0
    7.1316   -4.1984    0.0000 N   0  0  0  0  0  0           0  0  0
    7.8598   -4.6172    0.0000 C   0  0  0  0  0  0           0  0  0
    7.8621   -5.4589    0.0000 C   0  0  0  0  0  0           0  0  0
    8.5944   -5.8777    0.0000 C   0  0  0  0  0  0           0  0  0
    8.5912   -6.7178    0.0000 C   0  0  0  0  0  0           0  0  0
    9.3185   -7.1365    0.0000 C   0  0  0  0  0  0           0  0  0
   10.0495   -6.7136    0.0000 C   0  0  0  0  0  0           0  0  0
   10.0445   -5.8677    0.0000 C   0  0  0  0  0  0           0  0  0
    9.3124   -5.4527    0.0000 C   0  0  0  0  0  0           0  0  0
   10.7688   -5.4423    0.0000 O   0  0  0  0  0  0           0  0  0
   10.7781   -7.1315    0.0000 O   0  0  0  0  0  0           0  0  0
    2.7380   -4.2042    0.0000 C   0  0  0  0  0  0           0  0  0
    6.3824   -2.9266    0.0000 S   0  0  0  0  0  0           0  0  0
    2.0237   -4.6170    0.0000 C   0  0  0  0  0  0           0  0  0
    1.3092   -4.2031    0.0000 C   0  0  0  0  0  0           0  0  0
    0.5954   -4.6152    0.0000 C   0  0  0  0  0  0           0  0  0
    0.5953   -5.4411    0.0000 C   0  0  0  0  0  0           0  0  0
    1.3149   -5.8531    0.0000 C   0  0  0  0  0  0           0  0  0
    2.0258   -5.4387    0.0000 C   0  0  0  0  0  0           0  0  0
   -0.1190   -4.2026    0.0000 O   0  0  0  0  0  0           0  0  0
   -0.1185   -5.8548    0.0000 O   0  0  0  0  0  0           0  0  0
    6.3720   -2.1017    0.0000 C   0  0  3  0  0  0           0  0  0
    6.3979   -1.3427    0.0000 C   0  0  0  0  0  0           0  0  0
    5.6483   -2.0940    0.0000 C   0  0  0  0  0  0           0  0  0
    7.1757   -2.1218    0.0000 C   0  0  0  0  0  0           0  0  0
    7.0703   -0.9896    0.0000 C   0  0  0  0  0  0           0  0  0
    7.0965   -0.2314    0.0000 C   0  0  0  0  0  0           0  0  0
    6.4517    0.1713    0.0000 C   0  0  0  0  0  0           0  0  0
    5.7792   -0.1898    0.0000 C   0  0  0  0  0  0           0  0  0
    5.7562   -0.9469    0.0000 C   0  0  0  0  0  0           0  0  0
    7.5571   -2.8296    0.0000 C   0  0  0  0  0  0           0  0  0
    8.3600   -2.8501    0.0000 C   0  0  0  0  0  0           0  0  0
    8.7802   -2.1637    0.0000 C   0  0  0  0  0  0           0  0  0
    8.3915   -1.4552    0.0000 C   0  0  0  0  0  0           0  0  0
    7.5899   -1.4381    0.0000 C   0  0  0  0  0  0           0  0  0
    5.2975   -1.4621    0.0000 C   0  0  0  0  0  0           0  0  0
    4.5745   -1.4541    0.0000 C   0  0  0  0  0  0           0  0  0
    4.2052   -2.0776    0.0000 C   0  0  0  0  0  0           0  0  0
    4.5643   -2.7103    0.0000 C   0  0  0  0  0  0           0  0  0
    5.2862   -2.7152    0.0000 C   0  0  0  0  0  0           0  0  0
 23 24  1  0     0  0
  1  2  1  0     0  0
 24 25  2  0     0  0
 12 13  2  0     0  0
 25 26  1  0     0  0
  5  7  1  1     0  0
 26 27  2  0     0  0
 27 22  1  0     0  0
 13 14  1  0     0  0
 24 28  1  0     0  0
  2  4  2  0     0  0
 25 29  1  0     0  0
 14 15  2  0     0  0
 21 30  1  0     0  0
  6  8  2  0     0  0
 30 31  1  0     0  0
 15 16  1  0     0  0
 30 32  1  0     0  0
 30 33  1  0     0  0
 16 17  2  0     0  0
 31 34  2  0     0  0
 17 12  1  0     0  0
 34 35  1  0     0  0
  6  9  1  0     0  0
 35 36  2  0     0  0
 16 18  1  0     0  0
 36 37  1  0     0  0
  3  5  1  0     0  0
 37 38  2  0     0  0
 38 31  1  0     0  0
 15 19  1  0     0  0
 33 39  2  0     0  0
  9 10  1  0     0  0
 39 40  1  0     0  0
  1 20  2  0     0  0
 40 41  2  0     0  0
  2  3  1  0     0  0
 41 42  1  0     0  0
  7 21  1  0     0  0
 42 43  2  0     0  0
 43 33  1  0     0  0
 10 11  1  0     0  0
 32 44  2  0     0  0
 20 22  1  0     0  0
 44 45  1  0     0  0
  5  6  1  0     0  0
 45 46  2  0     0  0
 22 23  2  0     0  0
 46 47  1  0     0  0
 11 12  1  0     0  0
 47 48  2  0     0  0
 48 32  1  0     0  0
M  END
>  <prID>
528

>  <IDDB>
167886

>  <pIC50_HIV_Integrase>
6.326058001

>  <Q>
-1.038309682

>  <Activity_Integrase>
Active_Integrase

NA
NA
NA
NA
$$$$

  Accelrys05311914332D 1   1.00000     0.00000     0

 52 57  0     0  0            999 V2000
    3.4688   -4.6257    0.0000 C   0  0  0  0  0  0           0  0  0
    4.1993   -4.2038    0.0000 C   0  0  0  0  0  0           0  0  0
    4.9352   -4.6235    0.0000 N   0  0  0  0  0  0           0  0  0
    4.1813   -3.5621    0.0000 O   0  0  0  0  0  0           0  0  0
    5.6699   -4.2015    0.0000 C   0  0  2  0  0  0           0  0  0
    6.4017   -4.6212    0.0000 C   0  0  0  0  0  0           0  0  0
    5.6603   -3.3557    0.0000 C   0  0  0  0  0  0           0  0  0
    6.4030   -5.4671    0.0000 O   0  0  0  0  0  0           0  0  0
    7.1316   -4.1984    0.0000 N   0  0  0  0  0  0           0  0  0
    7.8598   -4.6172    0.0000 C   0  0  0  0  0  0           0  0  0
    7.8621   -5.4589    0.0000 C   0  0  0  0  0  0           0  0  0
    8.5944   -5.8777    0.0000 C   0  0  0  0  0  0           0  0  0
    8.5912   -6.7178    0.0000 C   0  0  0  0  0  0           0  0  0
    9.3185   -7.1365    0.0000 C   0  0  0  0  0  0           0  0  0
   10.0495   -6.7136    0.0000 C   0  0  0  0  0  0           0  0  0
   10.0445   -5.8677    0.0000 C   0  0  0  0  0  0           0  0  0
    9.3124   -5.4527    0.0000 C   0  0  0  0  0  0           0  0  0
   10.7688   -5.4423    0.0000 O   0  0  0  0  0  0           0  0  0
   10.7781   -7.1315    0.0000 O   0  0  0  0  0  0           0  0  0
    2.7380   -4.2042    0.0000 C   0  0  0  0  0  0           0  0  0
    2.0237   -4.6170    0.0000 C   0  0  0  0  0  0           0  0  0
    1.3092   -4.2031    0.0000 C   0  0  0  0  0  0           0  0  0
    0.5954   -4.6152    0.0000 C   0  0  0  0  0  0           0  0  0
    0.5953   -5.4411    0.0000 C   0  0  0  0  0  0           0  0  0
    1.3149   -5.8531    0.0000 C   0  0  0  0  0  0           0  0  0
    2.0258   -5.4387    0.0000 C   0  0  0  0  0  0           0  0  0
   -0.1190   -4.2026    0.0000 O   0  0  0  0  0  0           0  0  0
   -0.1185   -5.8548    0.0000 O   0  0  0  0  0  0           0  0  0
    6.3700   -2.9351    0.0000 C   0  0  0  0  0  0           0  0  0
    7.1248   -3.2588    0.0000 C   0  0  0  0  0  0           0  0  0
    7.6698   -2.6395    0.0000 N   0  0  0  0  0  0           0  0  0
    7.2492   -1.9297    0.0000 C   0  0  0  0  0  0           0  0  0
    6.4443   -2.1105    0.0000 N   0  0  3  0  0  0           0  0  0
    5.8239   -1.5666    0.0000 C   0  0  3  0  0  0           0  0  0
    6.4598   -1.1241    0.0000 C   0  0  0  0  0  0           0  0  0
    5.3057   -0.9082    0.0000 C   0  0  0  0  0  0           0  0  0
    5.0214   -1.9338    0.0000 C   0  0  0  0  0  0           0  0  0
    7.1574   -1.4563    0.0000 C   0  0  0  0  0  0           0  0  0
    7.7928   -1.0145    0.0000 C   0  0  0  0  0  0           0  0  0
    7.7279   -0.2417    0.0000 C   0  0  0  0  0  0           0  0  0
    7.0221    0.0872    0.0000 C   0  0  0  0  0  0           0  0  0
    6.3896   -0.3566    0.0000 C   0  0  0  0  0  0           0  0  0
    5.6197   -0.1346    0.0000 C   0  0  0  0  0  0           0  0  0
    5.1022    0.5235    0.0000 C   0  0  0  0  0  0           0  0  0
    4.2719    0.4042    0.0000 C   0  0  0  0  0  0           0  0  0
    3.9618   -0.3789    0.0000 C   0  0  0  0  0  0           0  0  0
    4.4812   -1.0336    0.0000 C   0  0  0  0  0  0           0  0  0
    4.3036   -1.4191    0.0000 C   0  0  0  0  0  0           0  0  0
    3.5016   -1.7856    0.0000 C   0  0  0  0  0  0           0  0  0
    3.4178   -2.6651    0.0000 C   0  0  0  0  0  0           0  0  0
    4.1424   -3.1769    0.0000 C   0  0  0  0  0  0           0  0  0
    4.9415   -2.8076    0.0000 C   0  0  0  0  0  0           0  0  0
 25 26  2  0     0  0
 26 21  1  0     0  0
  5  7  1  1     0  0
 23 27  1  0     0  0
 13 14  1  0     0  0
 24 28  1  0     0  0
  2  4  2  0     0  0
  7 29  1  0     0  0
 29 30  2  0     0  0
 14 15  2  0     0  0
  6  8  2  0     0  0
 15 16  1  0     0  0
 30 31  1  0     0  0
 31 32  2  0     0  0
 32 33  1  0     0  0
 33 29  1  0     0  0
 16 17  2  0     0  0
 33 34  1  0     0  0
 17 12  1  0     0  0
 34 35  1  0     0  0
  6  9  1  0     0  0
 34 36  1  0     0  0
 16 18  1  0     0  0
 34 37  1  0     0  0
  3  5  1  0     0  0
 35 38  2  0     0  0
 15 19  1  0     0  0
 38 39  1  0     0  0
  9 10  1  0     0  0
 39 40  2  0     0  0
  1 20  2  0     0  0
 40 41  1  0     0  0
  2  3  1  0     0  0
 41 42  2  0     0  0
 42 35  1  0     0  0
 20 21  1  0     0  0
 36 43  2  0     0  0
 10 11  1  0     0  0
 43 44  1  0     0  0
 21 22  2  0     0  0
 44 45  2  0     0  0
  5  6  1  0     0  0
 45 46  1  0     0  0
 22 23  1  0     0  0
 46 47  2  0     0  0
 47 36  1  0     0  0
 11 12  1  0     0  0
 37 48  2  0     0  0
 23 24  2  0     0  0
 48 49  1  0     0  0
  1  2  1  0     0  0
 49 50  2  0     0  0
 24 25  1  0     0  0
 50 51  1  0     0  0
 12 13  2  0     0  0
 51 52  2  0     0  0
 52 37  1  0     0  0
M  END
>  <prID>
529

>  <IDDB>
167887

>  <pIC50_HIV_Integrase>
6.432973634

>  <Q>
-1.811793963

>  <Activity_Integrase>
Active_Integrase

NA
NA
NA
NA
$$$$

  Accelrys05311914322D 1   1.00000     0.00000     0

 50 55  0     0  0            999 V2000
    3.4688   -4.6257    0.0000 C   0  0  0  0  0  0           0  0  0
    4.1993   -4.2038    0.0000 C   0  0  0  0  0  0           0  0  0
    4.9352   -4.6235    0.0000 N   0  0  0  0  0  0           0  0  0
    4.1813   -3.5621    0.0000 O   0  0  0  0  0  0           0  0  0
    5.6699   -4.2015    0.0000 C   0  0  2  0  0  0           0  0  0
    6.4017   -4.6212    0.0000 C   0  0  0  0  0  0           0  0  0
    5.6603   -3.3557    0.0000 C   0  0  0  0  0  0           0  0  0
    6.4030   -5.4671    0.0000 O   0  0  0  0  0  0           0  0  0
    7.1316   -4.1984    0.0000 N   0  0  0  0  0  0           0  0  0
    7.8598   -4.6172    0.0000 C   0  0  0  0  0  0           0  0  0
    6.3700   -2.9351    0.0000 C   0  0  0  0  0  0           0  0  0
    7.1248   -3.2588    0.0000 C   0  0  0  0  0  0           0  0  0
    7.6698   -2.6395    0.0000 N   0  0  0  0  0  0           0  0  0
    7.2492   -1.9297    0.0000 C   0  0  0  0  0  0           0  0  0
    6.4443   -2.1105    0.0000 N   0  0  3  0  0  0           0  0  0
    5.8239   -1.5666    0.0000 C   0  0  3  0  0  0           0  0  0
    6.4598   -1.1241    0.0000 C   0  0  0  0  0  0           0  0  0
    5.3057   -0.9082    0.0000 C   0  0  0  0  0  0           0  0  0
    5.0214   -1.9338    0.0000 C   0  0  0  0  0  0           0  0  0
    7.1574   -1.4563    0.0000 C   0  0  0  0  0  0           0  0  0
    7.7928   -1.0145    0.0000 C   0  0  0  0  0  0           0  0  0
    7.7279   -0.2417    0.0000 C   0  0  0  0  0  0           0  0  0
    7.0221    0.0872    0.0000 C   0  0  0  0  0  0           0  0  0
    6.3896   -0.3566    0.0000 C   0  0  0  0  0  0           0  0  0
    5.6197   -0.1346    0.0000 C   0  0  0  0  0  0           0  0  0
    5.1022    0.5235    0.0000 C   0  0  0  0  0  0           0  0  0
    4.2719    0.4042    0.0000 C   0  0  0  0  0  0           0  0  0
    3.9618   -0.3789    0.0000 C   0  0  0  0  0  0           0  0  0
    4.4812   -1.0336    0.0000 C   0  0  0  0  0  0           0  0  0
    4.3036   -1.4191    0.0000 C   0  0  0  0  0  0           0  0  0
    3.5016   -1.7856    0.0000 C   0  0  0  0  0  0           0  0  0
    3.4178   -2.6651    0.0000 C   0  0  0  0  0  0           0  0  0
    4.1424   -3.1769    0.0000 C   0  0  0  0  0  0           0  0  0
    4.9415   -2.8076    0.0000 C   0  0  0  0  0  0           0  0  0
    2.7403   -4.1996    0.0000 C   0  0  0  0  0  0           0  0  0
    2.0103   -4.6208    0.0000 C   0  0  0  0  0  0           0  0  0
    2.0100   -5.4653    0.0000 C   0  0  0  0  0  0           0  0  0
    2.7458   -5.8868    0.0000 C   0  0  0  0  0  0           0  0  0
    3.4728   -5.4631    0.0000 C   0  0  0  0  0  0           0  0  0
    1.2960   -4.2081    0.0000 O   0  0  0  0  0  0           0  0  0
    1.2962   -5.8789    0.0000 O   0  0  0  0  0  0           0  0  0
    8.5736   -4.2036    0.0000 C   0  0  0  0  0  0           0  0  0
    9.2887   -4.6149    0.0000 C   0  0  0  0  0  0           0  0  0
    9.2861   -5.4386    0.0000 C   0  0  0  0  0  0           0  0  0
   10.0003   -5.8499    0.0000 C   0  0  0  0  0  0           0  0  0
   10.7151   -5.4361    0.0000 C   0  0  0  0  0  0           0  0  0
   10.7111   -4.6069    0.0000 C   0  0  0  0  0  0           0  0  0
    9.9963   -4.1993    0.0000 C   0  0  0  0  0  0           0  0  0
   11.4235   -4.1907    0.0000 O   0  0  0  0  0  0           0  0  0
   11.4308   -5.8465    0.0000 O   0  0  0  0  0  0           0  0  0
  1  2  1  0     0  0
 18 25  2  0     0  0
  5  7  1  1     0  0
 25 26  1  0     0  0
  2  4  2  0     0  0
 26 27  2  0     0  0
 12 13  1  0     0  0
 27 28  1  0     0  0
 13 14  2  0     0  0
 28 29  2  0     0  0
 29 18  1  0     0  0
 14 15  1  0     0  0
 19 30  2  0     0  0
 15 11  1  0     0  0
 30 31  1  0     0  0
  6  8  2  0     0  0
 31 32  2  0     0  0
 15 16  1  0     0  0
 32 33  1  0     0  0
 33 34  2  0     0  0
 34 19  1  0     0  0
 16 17  1  0     0  0
  1 35  2  0     0  0
  6  9  1  0     0  0
 35 36  1  0     0  0
 16 18  1  0     0  0
 36 37  2  0     0  0
  3  5  1  0     0  0
 37 38  1  0     0  0
 16 19  1  0     0  0
 38 39  2  0     0  0
 39  1  1  0     0  0
  9 10  1  0     0  0
 36 40  1  0     0  0
 17 20  2  0     0  0
 37 41  1  0     0  0
  2  3  1  0     0  0
 10 42  1  0     0  0
 20 21  1  0     0  0
 42 43  1  0     0  0
  7 11  1  0     0  0
 43 44  2  0     0  0
 21 22  2  0     0  0
 44 45  1  0     0  0
 11 12  2  0     0  0
 45 46  2  0     0  0
 22 23  1  0     0  0
 46 47  1  0     0  0
  5  6  1  0     0  0
 47 48  2  0     0  0
 48 43  1  0     0  0
 23 24  2  0     0  0
 47 49  1  0     0  0
 24 17  1  0     0  0
 46 50  1  0     0  0
M  END
>  <prID>
530

>  <IDDB>
167888

>  <pIC50_HIV_Integrase>
6.9983774725

>  <Q>
-2.065358919

>  <Activity_Integrase>
Active_Integrase

NA
NA
NA
NA
$$$$

  Accelrys05311914322D 1   1.00000     0.00000     0

 36 38  0     0  0            999 V2000
    3.4688   -4.6257    0.0000 C   0  0  0  0  0  0           0  0  0
    4.1993   -4.2038    0.0000 C   0  0  0  0  0  0           0  0  0
    4.9352   -4.6235    0.0000 N   0  0  0  0  0  0           0  0  0
    4.1813   -3.5621    0.0000 O   0  0  0  0  0  0           0  0  0
    5.6699   -4.2015    0.0000 C   0  0  2  0  0  0           0  0  0
    6.4017   -4.6212    0.0000 C   0  0  0  0  0  0           0  0  0
    5.6603   -3.3557    0.0000 C   0  0  0  0  0  0           0  0  0
    6.4030   -5.4671    0.0000 O   0  0  0  0  0  0           0  0  0
    7.1316   -4.1984    0.0000 N   0  0  0  0  0  0           0  0  0
    7.8598   -4.6172    0.0000 C   0  0  0  0  0  0           0  0  0
    6.3700   -2.9351    0.0000 C   0  0  0  0  0  0           0  0  0
    2.7403   -4.1996    0.0000 C   0  0  0  0  0  0           0  0  0
    2.0103   -4.6208    0.0000 C   0  0  0  0  0  0           0  0  0
    2.0100   -5.4653    0.0000 C   0  0  0  0  0  0           0  0  0
    2.7458   -5.8868    0.0000 C   0  0  0  0  0  0           0  0  0
    3.4728   -5.4631    0.0000 C   0  0  0  0  0  0           0  0  0
    1.2962   -5.8789    0.0000 O   0  0  0  0  0  0           0  0  0
    8.5736   -4.2036    0.0000 C   0  0  0  0  0  0           0  0  0
    9.2887   -4.6149    0.0000 C   0  0  0  0  0  0           0  0  0
    9.2861   -5.4386    0.0000 C   0  0  0  0  0  0           0  0  0
   10.0003   -5.8499    0.0000 C   0  0  0  0  0  0           0  0  0
   10.7151   -5.4361    0.0000 C   0  0  0  0  0  0           0  0  0
   10.7111   -4.6069    0.0000 C   0  0  0  0  0  0           0  0  0
    9.9963   -4.1993    0.0000 C   0  0  0  0  0  0           0  0  0
   11.4235   -4.1907    0.0000 O   0  0  0  0  0  0           0  0  0
   11.4308   -5.8465    0.0000 O   0  0  0  0  0  0           0  0  0
    1.2960   -4.2081    0.0000 N   0  3  0  0  0  0           0  0  0
    1.2962   -3.3831    0.0000 O   0  5  0  0  0  0           0  0  0
    0.5814   -4.6204    0.0000 O   0  0  0  0  0  0           0  0  0
    7.0876   -3.3408    0.0000 C   0  0  0  0  0  0           0  0  0
    7.7968   -2.9209    0.0000 C   0  0  0  0  0  0           0  0  0
    7.7879   -2.0950    0.0000 C   0  0  0  0  0  0           0  0  0
    7.0637   -1.6909    0.0000 C   0  0  0  0  0  0           0  0  0
    6.3574   -2.1132    0.0000 C   0  0  0  0  0  0           0  0  0
    8.4970   -1.6735    0.0000 O   0  0  0  0  0  0           0  0  0
    7.0514   -0.8660    0.0000 O   0  0  0  0  0  0           0  0  0
 10 18  1  0     0  0
  3  5  1  0     0  0
 18 19  1  0     0  0
  9 10  1  0     0  0
 19 20  2  0     0  0
  2  3  1  0     0  0
 20 21  1  0     0  0
  7 11  1  0     0  0
 21 22  2  0     0  0
  5  6  1  0     0  0
 22 23  1  0     0  0
  1 12  2  0     0  0
 23 24  2  0     0  0
 24 19  1  0     0  0
  1  2  1  0     0  0
 23 25  1  0     0  0
 12 13  1  0     0  0
 22 26  1  0     0  0
  5  7  1  1     0  0
 13 27  1  0     0  0
 13 14  2  0     0  0
 27 28  1  0     0  0
  2  4  2  0     0  0
 27 29  2  0     0  0
 14 15  1  0     0  0
 11 30  2  0     0  0
  6  8  2  0     0  0
 30 31  1  0     0  0
 15 16  2  0     0  0
 31 32  2  0     0  0
 16  1  1  0     0  0
 32 33  1  0     0  0
 33 34  2  0     0  0
 34 11  1  0     0  0
 14 17  1  0     0  0
 32 35  1  0     0  0
  6  9  1  0     0  0
 33 36  1  0     0  0
M  CHG  2  27   1  28  -1
M  END
>  <prID>
531

>  <IDDB>
167889

>  <pIC50_HIV_Integrase>
6.363512104

>  <Q>
-4.673688717

>  <Activity_Integrase>
Active_Integrase

NA
NA
NA
NA
$$$$

  Accelrys05311914322D 1   1.00000     0.00000     0

 52 57  0     0  0            999 V2000
    2.8480   -5.4716    0.0000 C   0  0  0  0  0  0           0  0  0
    3.5784   -5.0496    0.0000 C   0  0  0  0  0  0           0  0  0
    4.3144   -5.4693    0.0000 N   0  0  0  0  0  0           0  0  0
    3.5605   -4.4079    0.0000 O   0  0  0  0  0  0           0  0  0
    5.0490   -5.0474    0.0000 C   0  0  2  0  0  0           0  0  0
    5.7808   -5.4671    0.0000 C   0  0  0  0  0  0           0  0  0
    5.0394   -4.2015    0.0000 C   0  0  0  0  0  0           0  0  0
    5.7821   -6.3129    0.0000 O   0  0  0  0  0  0           0  0  0
    6.5108   -5.0442    0.0000 N   0  0  0  0  0  0           0  0  0
    7.2389   -5.4631    0.0000 C   0  0  0  0  0  0           0  0  0
    5.7491   -3.7809    0.0000 C   0  0  0  0  0  0           0  0  0
    6.5040   -4.1046    0.0000 C   0  0  0  0  0  0           0  0  0
    7.0490   -3.4853    0.0000 N   0  0  0  0  0  0           0  0  0
    6.6284   -2.7755    0.0000 C   0  0  0  0  0  0           0  0  0
    5.8234   -2.9563    0.0000 N   0  0  3  0  0  0           0  0  0
    5.2031   -2.4125    0.0000 C   0  0  3  0  0  0           0  0  0
    5.8390   -1.9700    0.0000 C   0  0  0  0  0  0           0  0  0
    4.6849   -1.7540    0.0000 C   0  0  0  0  0  0           0  0  0
    4.4005   -2.7796    0.0000 C   0  0  0  0  0  0           0  0  0
    6.5365   -2.3021    0.0000 C   0  0  0  0  0  0           0  0  0
    7.1720   -1.8603    0.0000 C   0  0  0  0  0  0           0  0  0
    7.1071   -1.0875    0.0000 C   0  0  0  0  0  0           0  0  0
    6.4012   -0.7586    0.0000 C   0  0  0  0  0  0           0  0  0
    5.7687   -1.2024    0.0000 C   0  0  0  0  0  0           0  0  0
    4.9989   -0.9804    0.0000 C   0  0  0  0  0  0           0  0  0
    4.4814   -0.3224    0.0000 C   0  0  0  0  0  0           0  0  0
    3.6511   -0.4417    0.0000 C   0  0  0  0  0  0           0  0  0
    3.3409   -1.2247    0.0000 C   0  0  0  0  0  0           0  0  0
    3.8604   -1.8794    0.0000 C   0  0  0  0  0  0           0  0  0
    3.6828   -2.2649    0.0000 C   0  0  0  0  0  0           0  0  0
    2.8808   -2.6314    0.0000 C   0  0  0  0  0  0           0  0  0
    2.7970   -3.5109    0.0000 C   0  0  0  0  0  0           0  0  0
    3.5216   -4.0227    0.0000 C   0  0  0  0  0  0           0  0  0
    4.3207   -3.6534    0.0000 C   0  0  0  0  0  0           0  0  0
    2.1195   -5.0454    0.0000 C   0  0  0  0  0  0           0  0  0
    1.3895   -5.4667    0.0000 C   0  0  0  0  0  0           0  0  0
    1.3892   -6.3112    0.0000 C   0  0  0  0  0  0           0  0  0
    2.1250   -6.7326    0.0000 C   0  0  0  0  0  0           0  0  0
    2.8520   -6.3090    0.0000 C   0  0  0  0  0  0           0  0  0
    0.6751   -5.0540    0.0000 N   0  3  0  0  0  0           0  0  0
    0.6754   -6.7248    0.0000 O   0  0  0  0  0  0           0  0  0
    7.9527   -5.0494    0.0000 C   0  0  0  0  0  0           0  0  0
    8.6679   -5.4607    0.0000 C   0  0  0  0  0  0           0  0  0
    8.6652   -6.2844    0.0000 C   0  0  0  0  0  0           0  0  0
    9.3795   -6.6957    0.0000 C   0  0  0  0  0  0           0  0  0
   10.0943   -6.2820    0.0000 C   0  0  0  0  0  0           0  0  0
   10.0903   -5.4527    0.0000 C   0  0  0  0  0  0           0  0  0
    9.3754   -5.0452    0.0000 C   0  0  0  0  0  0           0  0  0
   10.8027   -5.0365    0.0000 O   0  0  0  0  0  0           0  0  0
   10.8100   -6.6924    0.0000 O   0  0  0  0  0  0           0  0  0
    0.6754   -4.2290    0.0000 O   0  5  0  0  0  0           0  0  0
   -0.0395   -5.4663    0.0000 O   0  0  0  0  0  0           0  0  0
  5  7  1  1     0  0
 25 26  1  0     0  0
  2  4  2  0     0  0
 26 27  2  0     0  0
 12 13  1  0     0  0
 27 28  1  0     0  0
 13 14  2  0     0  0
 28 29  2  0     0  0
 29 18  1  0     0  0
 14 15  1  0     0  0
 19 30  2  0     0  0
 15 11  1  0     0  0
 30 31  1  0     0  0
  6  8  2  0     0  0
 31 32  2  0     0  0
 15 16  1  0     0  0
 32 33  1  0     0  0
 33 34  2  0     0  0
 34 19  1  0     0  0
 16 17  1  0     0  0
  1 35  2  0     0  0
  6  9  1  0     0  0
 35 36  1  0     0  0
 16 18  1  0     0  0
 36 37  2  0     0  0
  3  5  1  0     0  0
 37 38  1  0     0  0
 16 19  1  0     0  0
 38 39  2  0     0  0
 39  1  1  0     0  0
  9 10  1  0     0  0
 36 40  1  0     0  0
 17 20  2  0     0  0
 37 41  1  0     0  0
  2  3  1  0     0  0
 10 42  1  0     0  0
 20 21  1  0     0  0
 42 43  1  0     0  0
  7 11  1  0     0  0
 43 44  2  0     0  0
 21 22  2  0     0  0
 44 45  1  0     0  0
 11 12  2  0     0  0
 45 46  2  0     0  0
 22 23  1  0     0  0
 46 47  1  0     0  0
  5  6  1  0     0  0
 47 48  2  0     0  0
 48 43  1  0     0  0
 23 24  2  0     0  0
 47 49  1  0     0  0
 24 17  1  0     0  0
 46 50  1  0     0  0
  1  2  1  0     0  0
 40 51  1  0     0  0
 18 25  2  0     0  0
 40 52  2  0     0  0
M  CHG  2  40   1  51  -1
M  END
>  <prID>
532

>  <IDDB>
167890

>  <pIC50_HIV_Integrase>
6.0230718505

>  <Q>
-1.4176514

>  <Activity_Integrase>
Active_Integrase

NA
NA
NA
NA
$$$$

  Accelrys05311914332D 1   1.00000     0.00000     0

 45 48  0     0  0            999 V2000
    2.8480   -5.4716    0.0000 C   0  0  0  0  0  0           0  0  0
    3.5784   -5.0496    0.0000 C   0  0  0  0  0  0           0  0  0
    4.3144   -5.4693    0.0000 N   0  0  0  0  0  0           0  0  0
    3.5605   -4.4079    0.0000 O   0  0  0  0  0  0           0  0  0
    5.0490   -5.0474    0.0000 C   0  0  2  0  0  0           0  0  0
    5.7808   -5.4671    0.0000 C   0  0  0  0  0  0           0  0  0
    5.0394   -4.2015    0.0000 C   0  0  0  0  0  0           0  0  0
    5.7821   -6.3129    0.0000 O   0  0  0  0  0  0           0  0  0
    6.5108   -5.0442    0.0000 N   0  0  0  0  0  0           0  0  0
    7.2389   -5.4631    0.0000 C   0  0  0  0  0  0           0  0  0
    5.7491   -3.7809    0.0000 C   0  0  0  0  0  0           0  0  0
    6.5040   -4.1046    0.0000 C   0  0  0  0  0  0           0  0  0
    7.0490   -3.4853    0.0000 N   0  0  0  0  0  0           0  0  0
    6.6284   -2.7755    0.0000 C   0  0  0  0  0  0           0  0  0
    5.8234   -2.9563    0.0000 N   0  0  3  0  0  0           0  0  0
    5.2031   -2.4125    0.0000 C   0  0  0  0  0  0           0  0  0
    7.9527   -5.0494    0.0000 C   0  0  0  0  0  0           0  0  0
    8.6679   -5.4607    0.0000 C   0  0  0  0  0  0           0  0  0
    8.6652   -6.2844    0.0000 C   0  0  0  0  0  0           0  0  0
    9.3795   -6.6957    0.0000 C   0  0  0  0  0  0           0  0  0
   10.0943   -6.2820    0.0000 C   0  0  0  0  0  0           0  0  0
   10.0903   -5.4527    0.0000 C   0  0  0  0  0  0           0  0  0
    9.3754   -5.0452    0.0000 C   0  0  0  0  0  0           0  0  0
   10.8027   -5.0365    0.0000 O   0  0  0  0  0  0           0  0  0
   10.8100   -6.6924    0.0000 O   0  0  0  0  0  0           0  0  0
    2.1334   -5.0592    0.0000 C   0  0  0  0  0  0           0  0  0
    1.4190   -5.4719    0.0000 C   0  0  0  0  0  0           0  0  0
    0.7070   -5.0551    0.0000 C   0  0  0  0  0  0           0  0  0
   -0.0069   -5.4670    0.0000 C   0  0  0  0  0  0           0  0  0
   -0.0072   -6.2929    0.0000 C   0  0  0  0  0  0           0  0  0
    0.7124   -6.7051    0.0000 C   0  0  0  0  0  0           0  0  0
    1.4233   -6.2908    0.0000 C   0  0  0  0  0  0           0  0  0
   -0.7210   -6.7065    0.0000 O   0  0  0  0  0  0           0  0  0
   -0.7213   -5.0543    0.0000 O   0  0  0  0  0  0           0  0  0
    5.3651   -1.6066    0.0000 C   0  0  0  0  0  0           0  0  0
    4.7456   -1.0630    0.0000 C   0  0  0  0  0  0           0  0  0
    3.9634   -1.3281    0.0000 C   0  0  0  0  0  0           0  0  0
    3.8043   -2.1420    0.0000 C   0  0  0  0  0  0           0  0  0
    4.4251   -2.6821    0.0000 C   0  0  0  0  0  0           0  0  0
    6.1466   -1.3423    0.0000 N   0  3  0  0  0  0           0  0  0
    3.3423   -0.7850    0.0000 N   0  3  0  0  0  0           0  0  0
    3.5021    0.0244    0.0000 O   0  5  0  0  0  0           0  0  0
    2.5615   -1.0513    0.0000 O   0  0  0  0  0  0           0  0  0
    6.7662   -1.8870    0.0000 O   0  5  0  0  0  0           0  0  0
    6.3085   -0.5334    0.0000 O   0  0  0  0  0  0           0  0  0
 11 12  2  0     0  0
 22 23  2  0     0  0
 23 18  1  0     0  0
  5  6  1  0     0  0
 22 24  1  0     0  0
  1  2  1  0     0  0
 21 25  1  0     0  0
  5  7  1  1     0  0
  1 26  2  0     0  0
  2  4  2  0     0  0
 26 27  1  0     0  0
 12 13  1  0     0  0
 27 28  2  0     0  0
 13 14  2  0     0  0
 28 29  1  0     0  0
 14 15  1  0     0  0
 29 30  2  0     0  0
 15 11  1  0     0  0
 30 31  1  0     0  0
  6  8  2  0     0  0
 31 32  2  0     0  0
 32 27  1  0     0  0
 15 16  1  0     0  0
 30 33  1  0     0  0
 29 34  1  0     0  0
 10 17  1  0     0  0
 16 35  2  0     0  0
  6  9  1  0     0  0
 35 36  1  0     0  0
 17 18  1  0     0  0
 36 37  2  0     0  0
  3  5  1  0     0  0
 37 38  1  0     0  0
 18 19  2  0     0  0
 38 39  2  0     0  0
 39 16  1  0     0  0
  9 10  1  0     0  0
 35 40  1  0     0  0
 19 20  1  0     0  0
 37 41  1  0     0  0
  2  3  1  0     0  0
 41 42  1  0     0  0
 20 21  2  0     0  0
 41 43  2  0     0  0
  7 11  1  0     0  0
 40 44  1  0     0  0
 21 22  1  0     0  0
 40 45  2  0     0  0
M  CHG  4  40   1  41   1  42  -1  44  -1
M  END
>  <prID>
533

>  <IDDB>
167891

>  <pIC50_HIV_Integrase>
6.251811973

>  <Q>
-3.35426303

>  <Activity_Integrase>
Active_Integrase

NA
NA
NA
NA
$$$$

  Accelrys05311914322D 1   1.00000     0.00000     0

 24 25  0     0  0            999 V2000
    3.2688   -4.8882    0.0000 C   0  0  0  0  0  0           0  0  0
    3.9993   -4.4663    0.0000 C   0  0  0  0  0  0           0  0  0
    4.7352   -4.8860    0.0000 N   0  0  0  0  0  0           0  0  0
    3.9813   -3.8246    0.0000 O   0  0  0  0  0  0           0  0  0
    5.4699   -4.4640    0.0000 C   0  0  2  0  0  0           0  0  0
    6.2017   -4.8837    0.0000 C   0  0  0  0  0  0           0  0  0
    5.4603   -3.6182    0.0000 C   0  0  0  0  0  0           0  0  0
    6.2030   -5.7296    0.0000 O   0  0  0  0  0  0           0  0  0
    6.1700   -3.1976    0.0000 C   0  0  0  0  0  0           0  0  0
    2.5403   -4.4621    0.0000 C   0  0  0  0  0  0           0  0  0
    1.8103   -4.8833    0.0000 C   0  0  0  0  0  0           0  0  0
    1.8100   -5.7278    0.0000 C   0  0  0  0  0  0           0  0  0
    2.5458   -6.1493    0.0000 C   0  0  0  0  0  0           0  0  0
    3.2728   -5.7256    0.0000 C   0  0  0  0  0  0           0  0  0
    1.0962   -6.1414    0.0000 N   0  0  0  0  0  0           0  0  0
    6.8876   -3.6033    0.0000 C   0  0  0  0  0  0           0  0  0
    7.5968   -3.1834    0.0000 C   0  0  0  0  0  0           0  0  0
    7.5879   -2.3575    0.0000 C   0  0  0  0  0  0           0  0  0
    6.8637   -1.9534    0.0000 C   0  0  0  0  0  0           0  0  0
    6.1574   -2.3757    0.0000 C   0  0  0  0  0  0           0  0  0
    8.2970   -1.9360    0.0000 O   0  0  0  0  0  0           0  0  0
    6.8514   -1.1285    0.0000 O   0  0  0  0  0  0           0  0  0
    1.0960   -4.4706    0.0000 O   0  0  0  0  0  0           0  0  0
    6.9152   -4.4697    0.0000 O   0  0  0  0  0  0           0  0  0
  1  2  1  0     0  0
 12 13  1  0     0  0
  5  7  1  1     0  0
 13 14  2  0     0  0
 14  1  1  0     0  0
  2  4  2  0     0  0
 12 15  1  0     0  0
  6  8  2  0     0  0
  9 16  2  0     0  0
 16 17  1  0     0  0
  7  9  1  0     0  0
 17 18  2  0     0  0
  3  5  1  0     0  0
 18 19  1  0     0  0
  1 10  2  0     0  0
 19 20  2  0     0  0
 20  9  1  0     0  0
  2  3  1  0     0  0
 18 21  1  0     0  0
 10 11  1  0     0  0
 19 22  1  0     0  0
  5  6  1  0     0  0
 11 23  1  0     0  0
 11 12  2  0     0  0
  6 24  1  0     0  0
M  END
>  <prID>
534

>  <IDDB>
167892

>  <pIC50_HIV_Integrase>
5.301029996

>  <Q>
-4.650795765

>  <Activity_Integrase>
Inactive_Integrase

NA
NA
NA
NA
$$$$

  Accelrys05311914322D 1   1.00000     0.00000     0

 43 46  0     0  0            999 V2000
    3.5355   -5.6799    0.0000 C   0  0  0  0  0  0           0  0  0
    4.2701   -5.2538    0.0000 C   0  0  0  0  0  0           0  0  0
    5.0102   -5.6777    0.0000 N   0  0  0  0  0  0           0  0  0
    4.2521   -4.6079    0.0000 O   0  0  0  0  0  0           0  0  0
    5.7490   -5.2515    0.0000 C   0  0  2  0  0  0           0  0  0
    6.4850   -5.6754    0.0000 C   0  0  0  0  0  0           0  0  0
    5.7394   -4.4015    0.0000 C   0  0  0  0  0  0           0  0  0
    6.4863   -6.5254    0.0000 O   0  0  0  0  0  0           0  0  0
    7.2191   -5.2484    0.0000 N   0  0  0  0  0  0           0  0  0
    7.9514   -5.6714    0.0000 C   0  0  0  0  0  0           0  0  0
    6.4533   -3.9768    0.0000 C   0  0  0  0  0  0           0  0  0
    7.2123   -4.3046    0.0000 C   0  0  0  0  0  0           0  0  0
    7.7573   -3.6811    0.0000 N   0  0  0  0  0  0           0  0  0
    7.3367   -2.9672    0.0000 C   0  0  0  0  0  0           0  0  0
    6.5276   -3.1480    0.0000 N   0  0  3  0  0  0           0  0  0
    5.9031   -2.6041    0.0000 C   0  0  0  0  0  0           0  0  0
    8.6694   -5.2536    0.0000 C   0  0  0  0  0  0           0  0  0
    9.3845   -5.6691    0.0000 C   0  0  0  0  0  0           0  0  0
    9.3819   -6.4969    0.0000 C   0  0  0  0  0  0           0  0  0
   10.1003   -6.9082    0.0000 C   0  0  0  0  0  0           0  0  0
   10.8193   -6.4945    0.0000 C   0  0  0  0  0  0           0  0  0
   10.8153   -5.6610    0.0000 C   0  0  0  0  0  0           0  0  0
   10.0963   -5.2493    0.0000 C   0  0  0  0  0  0           0  0  0
   11.5318   -5.2407    0.0000 O   0  0  0  0  0  0           0  0  0
   11.5392   -6.9049    0.0000 O   0  0  0  0  0  0           0  0  0
    6.0651   -1.7941    0.0000 C   0  0  0  0  0  0           0  0  0
    5.4456   -1.2463    0.0000 C   0  0  0  0  0  0           0  0  0
    4.6592   -1.5114    0.0000 C   0  0  0  0  0  0           0  0  0
    4.4960   -2.3295    0.0000 C   0  0  0  0  0  0           0  0  0
    5.1210   -2.8737    0.0000 C   0  0  0  0  0  0           0  0  0
    6.8508   -1.5256    0.0000 N   0  3  0  0  0  0           0  0  0
    4.0340   -0.9684    0.0000 N   0  3  0  0  0  0           0  0  0
    4.1938   -0.1548    0.0000 O   0  5  0  0  0  0           0  0  0
    3.2490   -1.2347    0.0000 O   0  0  0  0  0  0           0  0  0
    7.4746   -2.0745    0.0000 O   0  5  0  0  0  0           0  0  0
    7.0168   -0.7167    0.0000 O   0  0  0  0  0  0           0  0  0
    2.8013   -5.2522    0.0000 C   0  0  0  0  0  0           0  0  0
    2.0671   -5.6776    0.0000 C   0  0  0  0  0  0           0  0  0
    2.0684   -6.5278    0.0000 C   0  0  0  0  0  0           0  0  0
    2.8099   -6.9508    0.0000 C   0  0  0  0  0  0           0  0  0
    3.5410   -6.5229    0.0000 C   0  0  0  0  0  0           0  0  0
    1.3520   -5.2662    0.0000 O   0  0  0  0  0  0           0  0  0
    1.3553   -6.9427    0.0000 O   0  0  0  0  0  0           0  0  0
  7 11  1  0     0  0
 21 22  1  0     0  0
 11 12  2  0     0  0
 22 23  2  0     0  0
 23 18  1  0     0  0
  5  6  1  0     0  0
 22 24  1  0     0  0
  1  2  1  0     0  0
 21 25  1  0     0  0
  5  7  1  1     0  0
 16 26  2  0     0  0
  2  4  2  0     0  0
 26 27  1  0     0  0
 12 13  1  0     0  0
 27 28  2  0     0  0
 13 14  2  0     0  0
 28 29  1  0     0  0
 14 15  1  0     0  0
 29 30  2  0     0  0
 30 16  1  0     0  0
 15 11  1  0     0  0
 26 31  1  0     0  0
  6  8  2  0     0  0
 28 32  1  0     0  0
 15 16  1  0     0  0
 32 33  1  0     0  0
 32 34  2  0     0  0
 10 17  1  0     0  0
 31 35  1  0     0  0
  6  9  1  0     0  0
 31 36  2  0     0  0
 17 18  1  0     0  0
  1 37  2  0     0  0
  3  5  1  0     0  0
 37 38  1  0     0  0
 18 19  2  0     0  0
 38 39  2  0     0  0
  9 10  1  0     0  0
 39 40  1  0     0  0
 19 20  1  0     0  0
 40 41  2  0     0  0
 41  1  1  0     0  0
  2  3  1  0     0  0
 38 42  1  0     0  0
 20 21  2  0     0  0
 39 43  1  0     0  0
M  CHG  4  31   1  32   1  33  -1  35  -1
M  END
>  <prID>
535

>  <IDDB>
167893

>  <pIC50_HIV_Integrase>
6.821023053

>  <Q>
-3.607827966

>  <Activity_Integrase>
Active_Integrase

NA
NA
NA
NA
$$$$

  Accelrys05311914322D 1   1.00000     0.00000     0

 42 45  0     0  0            999 V2000
    2.8480   -5.6549    0.0000 C   0  0  0  0  0  0           0  0  0
    3.5784   -5.2329    0.0000 C   0  0  0  0  0  0           0  0  0
    4.3144   -5.6568    0.0000 N   0  0  0  0  0  0           0  0  0
    3.5605   -4.5913    0.0000 O   0  0  0  0  0  0           0  0  0
    5.0490   -5.2307    0.0000 C   0  0  2  0  0  0           0  0  0
    5.7808   -5.6546    0.0000 C   0  0  0  0  0  0           0  0  0
    5.0394   -4.3849    0.0000 C   0  0  0  0  0  0           0  0  0
    5.7821   -6.4962    0.0000 O   0  0  0  0  0  0           0  0  0
    6.5108   -5.2276    0.0000 N   0  0  0  0  0  0           0  0  0
    7.2389   -5.6506    0.0000 C   0  0  0  0  0  0           0  0  0
    5.7491   -3.9643    0.0000 C   0  0  0  0  0  0           0  0  0
    6.5040   -4.2880    0.0000 C   0  0  0  0  0  0           0  0  0
    7.0448   -3.6686    0.0000 N   0  0  0  0  0  0           0  0  0
    6.6284   -2.9589    0.0000 C   0  0  0  0  0  0           0  0  0
    5.8234   -3.1397    0.0000 N   0  0  3  0  0  0           0  0  0
    5.2031   -2.5958    0.0000 C   0  0  0  0  0  0           0  0  0
    5.3609   -1.7899    0.0000 C   0  0  0  0  0  0           0  0  0
    4.7456   -1.2463    0.0000 C   0  0  0  0  0  0           0  0  0
    3.9634   -1.5114    0.0000 C   0  0  0  0  0  0           0  0  0
    3.8001   -2.3253    0.0000 C   0  0  0  0  0  0           0  0  0
    4.4251   -2.8654    0.0000 C   0  0  0  0  0  0           0  0  0
    6.1466   -1.5256    0.0000 N   0  3  0  0  0  0           0  0  0
    3.3423   -0.9684    0.0000 N   0  3  0  0  0  0           0  0  0
    3.5021   -0.1590    0.0000 O   0  5  0  0  0  0           0  0  0
    2.5615   -1.2347    0.0000 O   0  0  0  0  0  0           0  0  0
    6.7662   -2.0703    0.0000 O   0  5  0  0  0  0           0  0  0
    6.3085   -0.7167    0.0000 O   0  0  0  0  0  0           0  0  0
    2.1138   -5.2313    0.0000 C   0  0  0  0  0  0           0  0  0
    1.3838   -5.6568    0.0000 C   0  0  0  0  0  0           0  0  0
    1.3851   -6.4986    0.0000 C   0  0  0  0  0  0           0  0  0
    2.1224   -6.9216    0.0000 C   0  0  0  0  0  0           0  0  0
    2.8535   -6.4938    0.0000 C   0  0  0  0  0  0           0  0  0
    0.6729   -5.2453    0.0000 O   0  0  0  0  0  0           0  0  0
    0.6761   -6.9135    0.0000 O   0  0  0  0  0  0           0  0  0
    7.9545   -5.2400    0.0000 C   0  0  0  0  0  0           0  0  0
    8.6651   -5.6564    0.0000 C   0  0  0  0  0  0           0  0  0
    9.3802   -5.2465    0.0000 C   0  0  0  0  0  0           0  0  0
    9.3828   -4.4206    0.0000 C   0  0  0  0  0  0           0  0  0
    8.6645   -4.0063    0.0000 C   0  0  0  0  0  0           0  0  0
    7.9523   -4.4186    0.0000 C   0  0  0  0  0  0           0  0  0
    8.6637   -3.1813    0.0000 O   0  0  0  0  0  0           0  0  0
   10.0979   -4.0090    0.0000 O   0  0  0  0  0  0           0  0  0
 20 21  2  0     0  0
 21 16  1  0     0  0
  7 11  1  0     0  0
 17 22  1  0     0  0
 11 12  2  0     0  0
 19 23  1  0     0  0
  5  6  1  0     0  0
 23 24  1  0     0  0
  1  2  1  0     0  0
 23 25  2  0     0  0
  5  7  1  1     0  0
 22 26  1  0     0  0
  2  4  2  0     0  0
 22 27  2  0     0  0
 12 13  1  0     0  0
  1 28  2  0     0  0
 13 14  2  0     0  0
 28 29  1  0     0  0
 14 15  1  0     0  0
 29 30  2  0     0  0
 15 11  1  0     0  0
 30 31  1  0     0  0
  6  8  2  0     0  0
 31 32  2  0     0  0
 32  1  1  0     0  0
 15 16  1  0     0  0
 29 33  1  0     0  0
 30 34  1  0     0  0
 16 17  2  0     0  0
 10 35  1  0     0  0
  6  9  1  0     0  0
 35 36  2  0     0  0
 17 18  1  0     0  0
 36 37  1  0     0  0
  3  5  1  0     0  0
 37 38  2  0     0  0
 18 19  2  0     0  0
 38 39  1  0     0  0
  9 10  1  0     0  0
 39 40  2  0     0  0
 40 35  1  0     0  0
 19 20  1  0     0  0
 39 41  1  0     0  0
  2  3  1  0     0  0
 38 42  1  0     0  0
M  CHG  4  22   1  23   1  24  -1  26  -1
M  END
>  <prID>
536

>  <IDDB>
167895

>  <pIC50_HIV_Integrase>
6.207608311

>  <Q>
-3.303787765

>  <Activity_Integrase>
Active_Integrase

NA
NA
NA
NA
$$$$

  Accelrys05311914322D 1   1.00000     0.00000     0

 39 41  0     0  0            999 V2000
    3.5784   -5.2329    0.0000 C   0  0  0  0  0  0           0  0  0
    4.3144   -5.6568    0.0000 N   0  0  0  0  0  0           0  0  0
    3.5605   -4.5913    0.0000 O   0  0  0  0  0  0           0  0  0
    5.0490   -5.2307    0.0000 C   0  0  2  0  0  0           0  0  0
    5.7808   -5.6546    0.0000 C   0  0  0  0  0  0           0  0  0
    5.0394   -4.3849    0.0000 C   0  0  0  0  0  0           0  0  0
    5.7821   -6.4962    0.0000 O   0  0  0  0  0  0           0  0  0
    6.5108   -5.2276    0.0000 N   0  0  0  0  0  0           0  0  0
    7.2389   -5.6506    0.0000 C   0  0  0  0  0  0           0  0  0
    5.7491   -3.9643    0.0000 C   0  0  0  0  0  0           0  0  0
    6.5040   -4.2880    0.0000 C   0  0  0  0  0  0           0  0  0
    7.0448   -3.6686    0.0000 N   0  0  0  0  0  0           0  0  0
    6.6284   -2.9589    0.0000 C   0  0  0  0  0  0           0  0  0
    5.8234   -3.1397    0.0000 N   0  0  3  0  0  0           0  0  0
    5.2031   -2.5958    0.0000 C   0  0  0  0  0  0           0  0  0
    5.3609   -1.7899    0.0000 C   0  0  0  0  0  0           0  0  0
    4.7456   -1.2463    0.0000 C   0  0  0  0  0  0           0  0  0
    3.9634   -1.5114    0.0000 C   0  0  0  0  0  0           0  0  0
    3.8001   -2.3253    0.0000 C   0  0  0  0  0  0           0  0  0
    4.4251   -2.8654    0.0000 C   0  0  0  0  0  0           0  0  0
    6.1466   -1.5256    0.0000 N   0  3  0  0  0  0           0  0  0
    3.3423   -0.9684    0.0000 N   0  3  0  0  0  0           0  0  0
    3.5021   -0.1590    0.0000 O   0  5  0  0  0  0           0  0  0
    2.5615   -1.2347    0.0000 O   0  0  0  0  0  0           0  0  0
    6.7662   -2.0703    0.0000 O   0  5  0  0  0  0           0  0  0
    6.3085   -0.7167    0.0000 O   0  0  0  0  0  0           0  0  0
    7.9545   -5.2400    0.0000 C   0  0  0  0  0  0           0  0  0
    8.6651   -5.6564    0.0000 C   0  0  0  0  0  0           0  0  0
    9.3802   -5.2465    0.0000 C   0  0  0  0  0  0           0  0  0
    9.3828   -4.4206    0.0000 C   0  0  0  0  0  0           0  0  0
    8.6645   -4.0063    0.0000 C   0  0  0  0  0  0           0  0  0
    7.9523   -4.4186    0.0000 C   0  0  0  0  0  0           0  0  0
    8.6637   -3.1813    0.0000 O   0  0  0  0  0  0           0  0  0
   10.0979   -4.0090    0.0000 O   0  0  0  0  0  0           0  0  0
    2.8700   -5.6558    0.0000 O   0  0  0  0  0  0           0  0  0
    2.1496   -5.2537    0.0000 C   0  0  3  0  0  0           0  0  0
    2.1377   -4.4288    0.0000 C   0  0  0  0  0  0           0  0  0
    1.4412   -5.6765    0.0000 C   0  0  0  0  0  0           0  0  0
    1.3078   -4.9036    0.0000 C   0  0  0  0  0  0           0  0  0
  6 10  1  0     0  0
 19 20  2  0     0  0
 20 15  1  0     0  0
 10 11  2  0     0  0
 16 21  1  0     0  0
  1  3  2  0     0  0
 18 22  1  0     0  0
  4  6  1  1     0  0
 22 23  1  0     0  0
  1  2  1  0     0  0
 22 24  2  0     0  0
  5  7  2  0     0  0
 21 25  1  0     0  0
 11 12  1  0     0  0
 21 26  2  0     0  0
 12 13  2  0     0  0
  9 27  1  0     0  0
 13 14  1  0     0  0
 27 28  2  0     0  0
 14 10  1  0     0  0
 28 29  1  0     0  0
  2  4  1  0     0  0
 29 30  2  0     0  0
 14 15  1  0     0  0
 30 31  1  0     0  0
  5  8  1  0     0  0
 31 32  2  0     0  0
 32 27  1  0     0  0
 15 16  2  0     0  0
 31 33  1  0     0  0
 30 34  1  0     0  0
 16 17  1  0     0  0
  1 35  1  0     0  0
  8  9  1  0     0  0
 35 36  1  0     0  0
 17 18  2  0     0  0
 36 37  1  0     0  0
  4  5  1  0     0  0
 36 38  1  0     0  0
 18 19  1  0     0  0
 36 39  1  0     0  0
M  CHG  4  21   1  22   1  23  -1  25  -1
M  END
>  <prID>
537

>  <IDDB>
167896

>  <pIC50_HIV_Integrase>
5.301029996

>  <Q>
-3.337004847

>  <Activity_Integrase>
Inactive_Integrase

NA
NA
NA
NA
$$$$

  Accelrys05311914322D 1   1.00000     0.00000     0

 49 54  0     0  0            999 V2000
    4.7076   -4.5246    0.0000 C   0  0  0  0  0  0           0  0  0
    5.4602   -4.9568    0.0000 N   0  0  0  0  0  0           0  0  0
    4.6896   -3.8704    0.0000 O   0  0  0  0  0  0           0  0  0
    6.2115   -4.5224    0.0000 C   0  0  2  0  0  0           0  0  0
    6.9558   -4.9546    0.0000 C   0  0  0  0  0  0           0  0  0
    6.2019   -3.6599    0.0000 C   0  0  0  0  0  0           0  0  0
    6.9571   -5.8171    0.0000 O   0  0  0  0  0  0           0  0  0
    7.7025   -4.5192    0.0000 N   0  0  0  0  0  0           0  0  0
    8.4473   -4.9506    0.0000 C   0  0  0  0  0  0           0  0  0
    6.9241   -3.2309    0.0000 C   0  0  0  0  0  0           0  0  0
    7.6956   -3.5630    0.0000 C   0  0  0  0  0  0           0  0  0
    8.2490   -2.9311    0.0000 N   0  0  0  0  0  0           0  0  0
    7.8242   -2.2047    0.0000 C   0  0  0  0  0  0           0  0  0
    7.0026   -2.3897    0.0000 N   0  0  3  0  0  0           0  0  0
    6.3656   -1.8375    0.0000 C   0  0  3  0  0  0           0  0  0
    9.1702   -4.5299    0.0000 C   0  0  0  0  0  0           0  0  0
    9.8963   -4.9528    0.0000 C   0  0  0  0  0  0           0  0  0
   10.6229   -4.5328    0.0000 C   0  0  0  0  0  0           0  0  0
   10.6235   -3.6945    0.0000 C   0  0  0  0  0  0           0  0  0
    9.8916   -3.2778    0.0000 C   0  0  0  0  0  0           0  0  0
    9.1680   -3.6960    0.0000 C   0  0  0  0  0  0           0  0  0
    9.8888   -2.4403    0.0000 O   0  0  0  0  0  0           0  0  0
   11.3458   -3.2770    0.0000 O   0  0  0  0  0  0           0  0  0
    6.8696   -1.1903    0.0000 C   0  0  0  0  0  0           0  0  0
    5.8853   -2.4262    0.0000 C   0  0  0  0  0  0           0  0  0
    7.6778   -1.3076    0.0000 C   0  0  0  0  0  0           0  0  0
    8.1816   -0.6612    0.0000 C   0  0  0  0  0  0           0  0  0
    7.8757    0.0947    0.0000 C   0  0  0  0  0  0           0  0  0
    7.0612    0.2088    0.0000 C   0  0  0  0  0  0           0  0  0
    6.5609   -0.4387    0.0000 C   0  0  0  0  0  0           0  0  0
    5.1329   -2.2956    0.0000 C   0  0  0  0  0  0           0  0  0
    4.6486   -2.8835    0.0000 C   0  0  0  0  0  0           0  0  0
    4.9172   -3.5994    0.0000 C   0  0  0  0  0  0           0  0  0
    5.6746   -3.7199    0.0000 C   0  0  0  0  0  0           0  0  0
    6.1515   -3.1308    0.0000 C   0  0  0  0  0  0           0  0  0
    5.7005   -1.3299    0.0000 C   0  0  0  0  0  0           0  0  0
    5.8078   -0.4990    0.0000 C   0  0  0  0  0  0           0  0  0
    5.1435    0.0084    0.0000 C   0  0  0  0  0  0           0  0  0
    4.3692   -0.3148    0.0000 C   0  0  0  0  0  0           0  0  0
    4.2673   -1.1503    0.0000 C   0  0  0  0  0  0           0  0  0
    4.9327   -1.6541    0.0000 C   0  0  0  0  0  0           0  0  0
    3.9994   -4.9477    0.0000 C   0  0  0  0  0  0           0  0  0
    3.2805   -4.5444    0.0000 C   0  0  0  0  0  0           0  0  0
    2.5728   -4.9668    0.0000 C   0  0  0  0  0  0           0  0  0
    2.5846   -5.7926    0.0000 C   0  0  0  0  0  0           0  0  0
    3.3102   -6.1942    0.0000 C   0  0  0  0  0  0           0  0  0
    4.0150   -5.7694    0.0000 C   0  0  0  0  0  0           0  0  0
    1.8524   -4.5646    0.0000 O   0  0  0  0  0  0           0  0  0
    1.8769   -6.2166    0.0000 O   0  0  0  0  0  0           0  0  0
 15 24  1  0     0  0
  5  7  2  0     0  0
 15 25  1  0     0  0
 11 12  1  0     0  0
 24 26  2  0     0  0
 12 13  2  0     0  0
 26 27  1  0     0  0
 13 14  1  0     0  0
 27 28  2  0     0  0
 14 10  1  0     0  0
 28 29  1  0     0  0
  2  4  1  0     0  0
 29 30  2  0     0  0
 30 24  1  0     0  0
 14 15  1  0     0  0
 25 31  2  0     0  0
  5  8  1  0     0  0
 31 32  1  0     0  0
  9 16  1  0     0  0
 32 33  2  0     0  0
 33 34  1  0     0  0
 16 17  2  0     0  0
 34 35  2  0     0  0
 35 25  1  0     0  0
  8  9  1  0     0  0
 15 36  1  0     0  0
 17 18  1  0     0  0
 36 37  2  0     0  0
  4  5  1  0     0  0
 37 38  1  0     0  0
 18 19  2  0     0  0
 38 39  2  0     0  0
  6 10  1  0     0  0
 39 40  1  0     0  0
 19 20  1  0     0  0
 40 41  2  0     0  0
 41 36  1  0     0  0
 10 11  2  0     0  0
  1 42  1  0     0  0
 20 21  2  0     0  0
 42 43  2  0     0  0
 21 16  1  0     0  0
 43 44  1  0     0  0
  1  3  2  0     0  0
 44 45  2  0     0  0
 20 22  1  0     0  0
 45 46  1  0     0  0
  4  6  1  1     0  0
 46 47  2  0     0  0
 47 42  1  0     0  0
 19 23  1  0     0  0
 44 48  1  0     0  0
  1  2  1  0     0  0
 45 49  1  0     0  0
M  END
>  <prID>
538

>  <IDDB>
167897

>  <pIC50_HIV_Integrase>
6

>  <Q>
-1.761318718

>  <Activity_Integrase>
Inactive_Integrase

NA
NA
NA
NA
$$$$

  Accelrys05311914322D 1   1.00000     0.00000     0

 53 58  0     0  0            999 V2000
    3.2063   -5.6591    0.0000 C   0  0  0  0  0  0           0  0  0
    3.9368   -5.2371    0.0000 C   0  0  0  0  0  0           0  0  0
    4.6727   -5.6568    0.0000 N   0  0  0  0  0  0           0  0  0
    3.9188   -4.5954    0.0000 O   0  0  0  0  0  0           0  0  0
    5.4074   -5.2349    0.0000 C   0  0  2  0  0  0           0  0  0
    6.1392   -5.6546    0.0000 C   0  0  0  0  0  0           0  0  0
    5.3978   -4.3890    0.0000 C   0  0  0  0  0  0           0  0  0
    6.1405   -6.5004    0.0000 O   0  0  0  0  0  0           0  0  0
    6.8691   -5.2317    0.0000 N   0  0  0  0  0  0           0  0  0
    7.5973   -5.6506    0.0000 C   0  0  0  0  0  0           0  0  0
    6.1075   -3.9684    0.0000 C   0  0  0  0  0  0           0  0  0
    6.8623   -4.2921    0.0000 C   0  0  0  0  0  0           0  0  0
    7.4073   -3.6728    0.0000 N   0  0  0  0  0  0           0  0  0
    6.9867   -2.9630    0.0000 C   0  0  0  0  0  0           0  0  0
    6.1818   -3.1438    0.0000 N   0  0  3  0  0  0           0  0  0
    5.5614   -2.6000    0.0000 C   0  0  0  0  0  0           0  0  0
    8.3111   -5.2369    0.0000 C   0  0  0  0  0  0           0  0  0
    9.0262   -5.6482    0.0000 C   0  0  0  0  0  0           0  0  0
    9.0236   -6.4719    0.0000 C   0  0  0  0  0  0           0  0  0
    9.7378   -6.8832    0.0000 C   0  0  0  0  0  0           0  0  0
   10.4526   -6.4695    0.0000 C   0  0  0  0  0  0           0  0  0
   10.4486   -5.6402    0.0000 C   0  0  0  0  0  0           0  0  0
    9.7338   -5.2327    0.0000 C   0  0  0  0  0  0           0  0  0
   11.1610   -5.2240    0.0000 O   0  0  0  0  0  0           0  0  0
   11.1683   -6.8799    0.0000 O   0  0  0  0  0  0           0  0  0
    2.4917   -5.2467    0.0000 C   0  0  0  0  0  0           0  0  0
    1.7773   -5.6594    0.0000 C   0  0  3  0  0  0           0  0  0
    1.0653   -5.2426    0.0000 C   0  0  0  0  0  0           0  0  0
    0.3514   -5.6545    0.0000 C   0  0  0  0  0  0           0  0  0
    0.3511   -6.4804    0.0000 C   0  0  0  0  0  0           0  0  0
    1.0707   -6.8926    0.0000 C   0  0  0  0  0  0           0  0  0
    1.7817   -6.4783    0.0000 C   0  0  0  0  0  0           0  0  0
   -0.3629   -5.2418    0.0000 O   0  0  0  0  0  0           0  0  0
   -0.3627   -6.8940    0.0000 O   0  0  0  0  0  0           0  0  0
    5.5223   -1.8450    0.0000 C   0  0  3  0  0  0           0  0  0
    5.5520   -1.0594    0.0000 C   0  0  0  0  0  0           0  0  0
    6.3660   -1.8088    0.0000 C   0  0  0  0  0  0           0  0  0
    4.8072   -1.8450    0.0000 C   0  0  0  0  0  0           0  0  0
    6.2493   -0.6963    0.0000 C   0  0  0  0  0  0           0  0  0
    6.2792    0.0885    0.0000 C   0  0  0  0  0  0           0  0  0
    5.6133    0.5078    0.0000 C   0  0  0  0  0  0           0  0  0
    4.9157    0.1366    0.0000 C   0  0  0  0  0  0           0  0  0
    4.8891   -0.6471    0.0000 C   0  0  0  0  0  0           0  0  0
    6.8176   -2.5231    0.0000 C   0  0  0  0  0  0           0  0  0
    7.6605   -2.4874    0.0000 C   0  0  0  0  0  0           0  0  0
    8.0519   -1.7381    0.0000 C   0  0  0  0  0  0           0  0  0
    7.5942   -1.0233    0.0000 C   0  0  0  0  0  0           0  0  0
    6.7528   -1.0625    0.0000 C   0  0  0  0  0  0           0  0  0
    4.4519   -1.2268    0.0000 C   0  0  0  0  0  0           0  0  0
    3.7375   -1.2266    0.0000 C   0  0  0  0  0  0           0  0  0
    3.3793   -1.8464    0.0000 C   0  0  0  0  0  0           0  0  0
    3.7407   -2.4677    0.0000 C   0  0  0  0  0  0           0  0  0
    4.4540   -2.4648    0.0000 C   0  0  0  0  0  0           0  0  0
  1 26  2  0     0  0
  2  4  2  0     0  0
 26 27  1  0     0  0
 12 13  1  0     0  0
 27 28  1  0     0  0
 13 14  2  0     0  0
 28 29  1  0     0  0
 14 15  1  0     0  0
 29 30  2  0     0  0
 15 11  1  0     0  0
 30 31  1  0     0  0
  6  8  2  0     0  0
 31 32  2  0     0  0
 32 27  1  0     0  0
 15 16  1  0     0  0
 29 33  1  0     0  0
 30 34  1  0     0  0
 10 17  1  0     0  0
 16 35  1  0     0  0
  6  9  1  0     0  0
 35 36  1  0     0  0
 17 18  1  0     0  0
 35 37  1  0     0  0
  3  5  1  0     0  0
 35 38  1  0     0  0
 18 19  2  0     0  0
 36 39  2  0     0  0
  9 10  1  0     0  0
 39 40  1  0     0  0
 19 20  1  0     0  0
 40 41  2  0     0  0
  2  3  1  0     0  0
 41 42  1  0     0  0
 20 21  2  0     0  0
 42 43  2  0     0  0
 43 36  1  0     0  0
  7 11  1  0     0  0
 37 44  2  0     0  0
 21 22  1  0     0  0
 44 45  1  0     0  0
 11 12  2  0     0  0
 45 46  2  0     0  0
 22 23  2  0     0  0
 46 47  1  0     0  0
 23 18  1  0     0  0
 47 48  2  0     0  0
 48 37  1  0     0  0
  5  6  1  0     0  0
 38 49  2  0     0  0
 22 24  1  0     0  0
 49 50  1  0     0  0
  1  2  1  0     0  0
 50 51  2  0     0  0
 21 25  1  0     0  0
 51 52  1  0     0  0
  5  7  1  1     0  0
 52 53  2  0     0  0
 53 38  1  0     0  0
M  END
>  <prID>
539

>  <IDDB>
167900

>  <pIC50_HIV_Integrase>
6.14691047

>  <Q>
-2.263060727

>  <Activity_Integrase>
Active_Integrase

NA
NA
NA
NA
$$$$

  Accelrys05311914322D 1   1.00000     0.00000     0

 33 35  0     0  0            999 V2000
    4.6730   -4.5674    0.0000 C   0  0  0  0  0  0           0  0  0
    5.4034   -4.1454    0.0000 C   0  0  0  0  0  0           0  0  0
    6.1394   -4.5652    0.0000 N   0  0  0  0  0  0           0  0  0
    5.3855   -3.5038    0.0000 O   0  0  0  0  0  0           0  0  0
    6.8740   -4.1432    0.0000 C   0  0  2  0  0  0           0  0  0
    7.6058   -4.5629    0.0000 C   0  0  0  0  0  0           0  0  0
    6.8644   -3.2974    0.0000 C   0  0  0  0  0  0           0  0  0
    7.6071   -5.4087    0.0000 O   0  0  0  0  0  0           0  0  0
    7.5741   -2.8768    0.0000 C   0  0  0  0  0  0           0  0  0
    3.9445   -4.1412    0.0000 C   0  0  0  0  0  0           0  0  0
    3.2145   -4.5625    0.0000 C   0  0  0  0  0  0           0  0  0
    3.2142   -5.4070    0.0000 C   0  0  0  0  0  0           0  0  0
    3.9500   -5.8285    0.0000 C   0  0  0  0  0  0           0  0  0
    4.6770   -5.4048    0.0000 C   0  0  0  0  0  0           0  0  0
    2.5004   -5.8206    0.0000 N   0  3  0  0  0  0           0  0  0
    8.2917   -3.2825    0.0000 C   0  0  0  0  0  0           0  0  0
    9.0010   -2.8625    0.0000 C   0  0  0  0  0  0           0  0  0
    8.9920   -2.0367    0.0000 C   0  0  0  0  0  0           0  0  0
    8.2679   -1.6326    0.0000 C   0  0  0  0  0  0           0  0  0
    7.5616   -2.0548    0.0000 C   0  0  0  0  0  0           0  0  0
    9.7012   -1.6152    0.0000 O   0  0  0  0  0  0           0  0  0
    8.2556   -0.8077    0.0000 O   0  0  0  0  0  0           0  0  0
    2.5001   -4.1498    0.0000 O   0  0  0  0  0  0           0  0  0
    8.3194   -4.1488    0.0000 O   0  0  0  0  0  0           0  0  0
    1.7853   -5.4092    0.0000 O   0  5  0  0  0  0           0  0  0
    2.5016   -6.6456    0.0000 O   0  0  0  0  0  0           0  0  0
    9.0348   -4.5598    0.0000 C   0  0  0  0  0  0           0  0  0
    9.7483   -4.1457    0.0000 C   0  0  0  0  0  0           0  0  0
   10.4585   -4.5597    0.0000 C   0  0  0  0  0  0           0  0  0
   11.1716   -4.1464    0.0000 C   0  0  0  0  0  0           0  0  0
   11.1702   -3.3205    0.0000 C   0  0  0  0  0  0           0  0  0
   10.4498   -2.9097    0.0000 C   0  0  0  0  0  0           0  0  0
    9.7397   -3.3255    0.0000 C   0  0  0  0  0  0           0  0  0
 16 17  1  0     0  0
  7  9  1  0     0  0
 17 18  2  0     0  0
  3  5  1  0     0  0
 18 19  1  0     0  0
  1 10  2  0     0  0
 19 20  2  0     0  0
 20  9  1  0     0  0
  2  3  1  0     0  0
 18 21  1  0     0  0
 10 11  1  0     0  0
 19 22  1  0     0  0
  5  6  1  0     0  0
 11 23  1  0     0  0
 11 12  2  0     0  0
  6 24  1  0     0  0
  1  2  1  0     0  0
 15 25  1  0     0  0
 12 13  1  0     0  0
 15 26  2  0     0  0
  5  7  1  1     0  0
 24 27  1  0     0  0
 13 14  2  0     0  0
 27 28  1  0     0  0
 14  1  1  0     0  0
 28 29  2  0     0  0
  2  4  2  0     0  0
 29 30  1  0     0  0
 12 15  1  0     0  0
 30 31  2  0     0  0
  6  8  2  0     0  0
 31 32  1  0     0  0
  9 16  2  0     0  0
 32 33  2  0     0  0
 33 28  1  0     0  0
M  CHG  2  15   1  25  -1
M  END
>  <prID>
540

>  <IDDB>
167902

>  <pIC50_HIV_Integrase>
5.552841969

>  <Q>
-2.338174627

>  <Activity_Integrase>
Inactive_Integrase

NA
NA
NA
NA
$$$$

  Accelrys05311914322D 1   1.00000     0.00000     0

 51 56  0     0  0            999 V2000
    3.8409   -5.2413    0.0000 C   0  0  0  0  0  0           0  0  0
    4.5977   -5.6735    0.0000 N   0  0  0  0  0  0           0  0  0
    3.8230   -4.5829    0.0000 O   0  0  0  0  0  0           0  0  0
    5.3532   -5.2390    0.0000 C   0  0  2  0  0  0           0  0  0
    6.0975   -5.6712    0.0000 C   0  0  0  0  0  0           0  0  0
    5.3436   -4.3724    0.0000 C   0  0  0  0  0  0           0  0  0
    6.0988   -6.5379    0.0000 O   0  0  0  0  0  0           0  0  0
    6.8483   -5.2359    0.0000 N   0  0  0  0  0  0           0  0  0
    7.5973   -5.6672    0.0000 C   0  0  0  0  0  0           0  0  0
    6.0658   -3.9393    0.0000 C   0  0  0  0  0  0           0  0  0
    6.8415   -4.2755    0.0000 C   0  0  0  0  0  0           0  0  0
    7.3990   -3.6395    0.0000 N   0  0  0  0  0  0           0  0  0
    6.9700   -2.9089    0.0000 C   0  0  0  0  0  0           0  0  0
    6.1443   -3.0938    0.0000 N   0  0  3  0  0  0           0  0  0
    5.5073   -2.5375    0.0000 C   0  0  3  0  0  0           0  0  0
    8.3243   -5.2465    0.0000 C   0  0  0  0  0  0           0  0  0
    9.0547   -5.6695    0.0000 C   0  0  0  0  0  0           0  0  0
    9.7854   -5.2495    0.0000 C   0  0  0  0  0  0           0  0  0
    9.7860   -4.4070    0.0000 C   0  0  0  0  0  0           0  0  0
    9.0499   -3.9861    0.0000 C   0  0  0  0  0  0           0  0  0
    8.3221   -4.4085    0.0000 C   0  0  0  0  0  0           0  0  0
    9.0472   -3.1445    0.0000 O   0  0  0  0  0  0           0  0  0
   10.5125   -3.9853    0.0000 O   0  0  0  0  0  0           0  0  0
    6.0113   -1.8903    0.0000 C   0  0  0  0  0  0           0  0  0
    5.0228   -3.1303    0.0000 C   0  0  0  0  0  0           0  0  0
    6.8236   -2.0076    0.0000 C   0  0  0  0  0  0           0  0  0
    7.3316   -1.3571    0.0000 C   0  0  0  0  0  0           0  0  0
    7.0257   -0.5970    0.0000 C   0  0  0  0  0  0           0  0  0
    6.2070   -0.4829    0.0000 C   0  0  0  0  0  0           0  0  0
    5.7026   -1.1345    0.0000 C   0  0  0  0  0  0           0  0  0
    4.2662   -2.9997    0.0000 C   0  0  0  0  0  0           0  0  0
    3.7820   -3.5918    0.0000 C   0  0  0  0  0  0           0  0  0
    4.0506   -4.3119    0.0000 C   0  0  0  0  0  0           0  0  0
    4.8121   -4.4324    0.0000 C   0  0  0  0  0  0           0  0  0
    5.2890   -3.8392    0.0000 C   0  0  0  0  0  0           0  0  0
    4.8380   -2.0299    0.0000 C   0  0  0  0  0  0           0  0  0
    4.9453   -1.1948    0.0000 C   0  0  0  0  0  0           0  0  0
    4.2768   -0.6832    0.0000 C   0  0  0  0  0  0           0  0  0
    3.4984   -1.0107    0.0000 C   0  0  0  0  0  0           0  0  0
    3.3965   -1.8503    0.0000 C   0  0  0  0  0  0           0  0  0
    4.0660   -2.3541    0.0000 C   0  0  0  0  0  0           0  0  0
    3.1285   -5.6644    0.0000 C   0  0  0  0  0  0           0  0  0
    2.4090   -5.2607    0.0000 C   0  0  0  0  0  0           0  0  0
    1.6997   -5.6819    0.0000 C   0  0  0  0  0  0           0  0  0
    0.9829   -5.2769    0.0000 C   0  0  0  0  0  0           0  0  0
    0.2740   -5.6975    0.0000 C   0  0  0  0  0  0           0  0  0
    0.2837   -6.5233    0.0000 C   0  0  0  0  0  0           0  0  0
    1.0082   -6.9268    0.0000 C   0  0  0  0  0  0           0  0  0
    1.7141   -6.5039    0.0000 C   0  0  0  0  0  0           0  0  0
   -0.4453   -5.2935    0.0000 O   0  0  0  0  0  0           0  0  0
   -0.4251   -6.9455    0.0000 O   0  0  0  0  0  0           0  0  0
 15 25  1  0     0  0
 11 12  1  0     0  0
 24 26  2  0     0  0
 12 13  2  0     0  0
 26 27  1  0     0  0
 13 14  1  0     0  0
 27 28  2  0     0  0
 14 10  1  0     0  0
 28 29  1  0     0  0
  2  4  1  0     0  0
 29 30  2  0     0  0
 30 24  1  0     0  0
 14 15  1  0     0  0
 25 31  2  0     0  0
  5  8  1  0     0  0
 31 32  1  0     0  0
  9 16  1  0     0  0
 32 33  2  0     0  0
 33 34  1  0     0  0
 16 17  2  0     0  0
 34 35  2  0     0  0
 35 25  1  0     0  0
  8  9  1  0     0  0
 15 36  1  0     0  0
 17 18  1  0     0  0
 36 37  2  0     0  0
  4  5  1  0     0  0
 37 38  1  0     0  0
 18 19  2  0     0  0
 38 39  2  0     0  0
  6 10  1  0     0  0
 39 40  1  0     0  0
 19 20  1  0     0  0
 40 41  2  0     0  0
 41 36  1  0     0  0
 10 11  2  0     0  0
  1 42  1  0     0  0
 20 21  2  0     0  0
 42 43  2  0     0  0
 21 16  1  0     0  0
 43 44  1  0     0  0
  1  3  2  0     0  0
 44 45  2  0     0  0
 20 22  1  0     0  0
 45 46  1  0     0  0
  4  6  1  1     0  0
 46 47  2  0     0  0
 19 23  1  0     0  0
 47 48  1  0     0  0
  1  2  1  0     0  0
 48 49  2  0     0  0
 49 44  1  0     0  0
 15 24  1  0     0  0
 46 50  1  0     0  0
  5  7  2  0     0  0
 47 51  1  0     0  0
M  END
>  <prID>
541

>  <IDDB>
167903

>  <pIC50_HIV_Integrase>
6.438898616

>  <Q>
-1.507753756

>  <Activity_Integrase>
Active_Integrase

NA
NA
NA
NA
$$$$

  Accelrys05311914332D 1   1.00000     0.00000     0

 49 53  0     0  0            999 V2000
    7.3047   -1.1738    0.0000 C   0  0  0  0  0  0           0  0  0
    6.4856   -1.1722    0.0000 C   0  0  0  0  0  0           0  0  0
    6.0765   -1.8825    0.0000 C   0  0  0  0  0  0           0  0  0
    6.4852   -2.5909    0.0000 C   0  0  0  0  0  0           0  0  0
    7.3074   -2.5886    0.0000 C   0  0  0  0  0  0           0  0  0
    7.7128   -1.8818    0.0000 C   0  0  0  0  0  0           0  0  0
    4.2201   -5.9538    0.0000 C   0  0  0  0  0  0           0  0  0
    4.9644   -6.3818    0.0000 N   0  0  0  0  0  0           0  0  0
    4.2021   -5.3038    0.0000 O   0  0  0  0  0  0           0  0  0
    5.7074   -5.9515    0.0000 C   0  0  2  0  0  0           0  0  0
    6.4433   -6.3796    0.0000 C   0  0  0  0  0  0           0  0  0
    5.6978   -5.0974    0.0000 C   0  0  0  0  0  0           0  0  0
    6.4446   -7.2337    0.0000 O   0  0  0  0  0  0           0  0  0
    7.1858   -5.9484    0.0000 N   0  0  0  0  0  0           0  0  0
    7.9223   -6.3756    0.0000 C   0  0  0  0  0  0           0  0  0
    6.4116   -4.6726    0.0000 C   0  0  0  0  0  0           0  0  0
    8.6368   -5.9590    0.0000 C   0  0  0  0  0  0           0  0  0
    9.3547   -6.3778    0.0000 C   0  0  0  0  0  0           0  0  0
   10.0771   -5.9620    0.0000 C   0  0  0  0  0  0           0  0  0
   10.0777   -5.1320    0.0000 C   0  0  0  0  0  0           0  0  0
    9.3499   -4.7195    0.0000 C   0  0  0  0  0  0           0  0  0
    8.6346   -5.1335    0.0000 C   0  0  0  0  0  0           0  0  0
    9.3472   -3.8903    0.0000 O   0  0  0  0  0  0           0  0  0
   10.7917   -4.7186    0.0000 O   0  0  0  0  0  0           0  0  0
    3.5160   -6.3727    0.0000 C   0  0  0  0  0  0           0  0  0
    2.8055   -5.9736    0.0000 C   0  0  0  0  0  0           0  0  0
    2.1061   -6.3918    0.0000 C   0  0  0  0  0  0           0  0  0
    2.1179   -7.2092    0.0000 C   0  0  0  0  0  0           0  0  0
    2.8352   -7.6067    0.0000 C   0  0  0  0  0  0           0  0  0
    3.5316   -7.1861    0.0000 C   0  0  0  0  0  0           0  0  0
    1.4144   -7.6291    0.0000 O   0  0  0  0  0  0           0  0  0
    6.4015   -3.8560    0.0000 C   0  0  0  0  0  0           0  0  0
    7.1066   -3.4389    0.0000 O   0  0  0  0  0  0           0  0  0
    5.6903   -3.4565    0.0000 N   0  0  0  0  0  0           0  0  0
    1.3941   -5.9938    0.0000 O   0  0  0  0  0  0           0  0  0
    5.6801   -2.6399    0.0000 C   0  0  0  0  0  0           0  0  0
    4.9690   -2.2404    0.0000 C   0  0  3  0  0  0           0  0  0
    4.9588   -1.4238    0.0000 C   0  0  0  0  0  0           0  0  0
    4.2680   -2.6575    0.0000 C   0  0  0  0  0  0           0  0  0
    5.6598   -1.0104    0.0000 C   0  0  0  0  0  0           0  0  0
    5.6500   -0.1946    0.0000 C   0  0  0  0  0  0           0  0  0
    4.9383    0.2057    0.0000 C   0  0  0  0  0  0           0  0  0
    4.2350   -0.2159    0.0000 C   0  0  0  0  0  0           0  0  0
    4.2483   -1.0303    0.0000 C   0  0  0  0  0  0           0  0  0
    3.5566   -2.2556    0.0000 C   0  0  0  0  0  0           0  0  0
    2.8561   -2.6720    0.0000 C   0  0  0  0  0  0           0  0  0
    2.8658   -3.4895    0.0000 C   0  0  0  0  0  0           0  0  0
    3.5820   -3.8888    0.0000 C   0  0  0  0  0  0           0  0  0
    4.2837   -3.4700    0.0000 C   0  0  0  0  0  0           0  0  0
  6  1  1  0     0  0
  7 25  1  0     0  0
 11 13  2  0     0  0
 25 26  2  0     0  0
  1  2  2  0     0  0
 26 27  1  0     0  0
 11 14  1  0     0  0
 27 28  2  0     0  0
  3  4  2  0     0  0
 28 29  1  0     0  0
 14 15  1  0     0  0
 29 30  2  0     0  0
 30 25  1  0     0  0
  7  8  1  0     0  0
 28 31  1  0     0  0
 12 16  1  0     0  0
 16 32  1  0     0  0
 32 33  2  0     0  0
 15 17  1  0     0  0
 32 34  1  0     0  0
  7  9  2  0     0  0
 27 35  1  0     0  0
 17 18  2  0     0  0
 34 36  1  0     0  0
  4  5  1  0     0  0
 36 37  1  0     0  0
 18 19  1  0     0  0
 37 38  1  0     0  0
  8 10  1  0     0  0
 37 39  1  0     0  0
 37  3  1  0     0  0
 19 20  2  0     0  0
 38 40  2  0     0  0
  2  3  1  0     0  0
 40 41  1  0     0  0
 20 21  1  0     0  0
 41 42  2  0     0  0
 10 11  1  0     0  0
 42 43  1  0     0  0
 21 22  2  0     0  0
 43 44  2  0     0  0
 44 38  1  0     0  0
 22 17  1  0     0  0
 39 45  2  0     0  0
  5  6  2  0     0  0
 45 46  1  0     0  0
 21 23  1  0     0  0
 46 47  2  0     0  0
 10 12  1  1     0  0
 47 48  1  0     0  0
 20 24  1  0     0  0
 48 49  2  0     0  0
 49 39  1  0     0  0
M  END
>  <prID>
542

>  <IDDB>
167904

>  <pIC50_HIV_Integrase>
6.591760035

>  <Q>
-3.21093227

>  <Activity_Integrase>
Active_Integrase

NA
NA
NA
NA
$$$$

  Accelrys05311914322D 1   1.00000     0.00000     0

 51 55  0     0  0            999 V2000
    7.3047   -1.1738    0.0000 C   0  0  0  0  0  0           0  0  0
    6.4856   -1.1722    0.0000 C   0  0  0  0  0  0           0  0  0
    6.0765   -1.8825    0.0000 C   0  0  0  0  0  0           0  0  0
    6.4852   -2.5909    0.0000 C   0  0  0  0  0  0           0  0  0
    7.3074   -2.5886    0.0000 C   0  0  0  0  0  0           0  0  0
    7.7128   -1.8818    0.0000 C   0  0  0  0  0  0           0  0  0
    4.2201   -5.9538    0.0000 C   0  0  0  0  0  0           0  0  0
    4.9644   -6.3818    0.0000 N   0  0  0  0  0  0           0  0  0
    4.2021   -5.3038    0.0000 O   0  0  0  0  0  0           0  0  0
    5.7074   -5.9515    0.0000 C   0  0  2  0  0  0           0  0  0
    6.4433   -6.3796    0.0000 C   0  0  0  0  0  0           0  0  0
    5.6978   -5.0974    0.0000 C   0  0  0  0  0  0           0  0  0
    6.4446   -7.2337    0.0000 O   0  0  0  0  0  0           0  0  0
    7.1858   -5.9484    0.0000 N   0  0  0  0  0  0           0  0  0
    7.9223   -6.3756    0.0000 C   0  0  0  0  0  0           0  0  0
    6.4116   -4.6726    0.0000 C   0  0  0  0  0  0           0  0  0
    8.6368   -5.9590    0.0000 C   0  0  0  0  0  0           0  0  0
    9.3547   -6.3778    0.0000 C   0  0  0  0  0  0           0  0  0
   10.0771   -5.9620    0.0000 C   0  0  0  0  0  0           0  0  0
   10.0777   -5.1320    0.0000 C   0  0  0  0  0  0           0  0  0
    9.3499   -4.7195    0.0000 C   0  0  0  0  0  0           0  0  0
    8.6346   -5.1335    0.0000 C   0  0  0  0  0  0           0  0  0
    9.3472   -3.8903    0.0000 O   0  0  0  0  0  0           0  0  0
   10.7917   -4.7186    0.0000 O   0  0  0  0  0  0           0  0  0
    3.5160   -6.3727    0.0000 C   0  0  0  0  0  0           0  0  0
    6.4015   -3.8560    0.0000 C   0  0  0  0  0  0           0  0  0
    7.1066   -3.4389    0.0000 O   0  0  0  0  0  0           0  0  0
    5.6903   -3.4565    0.0000 N   0  0  0  0  0  0           0  0  0
    5.6801   -2.6399    0.0000 C   0  0  0  0  0  0           0  0  0
    4.9690   -2.2404    0.0000 C   0  0  3  0  0  0           0  0  0
    4.9588   -1.4238    0.0000 C   0  0  0  0  0  0           0  0  0
    4.2680   -2.6575    0.0000 C   0  0  0  0  0  0           0  0  0
    5.6598   -1.0104    0.0000 C   0  0  0  0  0  0           0  0  0
    5.6500   -0.1946    0.0000 C   0  0  0  0  0  0           0  0  0
    4.9383    0.2057    0.0000 C   0  0  0  0  0  0           0  0  0
    4.2350   -0.2159    0.0000 C   0  0  0  0  0  0           0  0  0
    4.2483   -1.0303    0.0000 C   0  0  0  0  0  0           0  0  0
    3.5566   -2.2556    0.0000 C   0  0  0  0  0  0           0  0  0
    2.8561   -2.6720    0.0000 C   0  0  0  0  0  0           0  0  0
    2.8658   -3.4895    0.0000 C   0  0  0  0  0  0           0  0  0
    3.5820   -3.8888    0.0000 C   0  0  0  0  0  0           0  0  0
    4.2837   -3.4700    0.0000 C   0  0  0  0  0  0           0  0  0
    2.7962   -5.9696    0.0000 C   0  0  0  0  0  0           0  0  0
    2.0872   -6.3914    0.0000 C   0  0  0  0  0  0           0  0  0
    1.3711   -5.9876    0.0000 C   0  0  0  0  0  0           0  0  0
    0.6626   -6.4087    0.0000 C   0  0  0  0  0  0           0  0  0
    0.6730   -7.2345    0.0000 C   0  0  0  0  0  0           0  0  0
    1.3978   -7.6374    0.0000 C   0  0  0  0  0  0           0  0  0
    2.1033   -7.2139    0.0000 C   0  0  0  0  0  0           0  0  0
   -0.0355   -7.6573    0.0000 O   0  0  0  0  0  0           0  0  0
   -0.0571   -6.0053    0.0000 O   0  0  0  0  0  0           0  0  0
 11 13  2  0     0  0
 16 26  1  0     0  0
  1  2  2  0     0  0
 26 27  2  0     0  0
 11 14  1  0     0  0
 26 28  1  0     0  0
  3  4  2  0     0  0
 28 29  1  0     0  0
 14 15  1  0     0  0
 29 30  1  0     0  0
  7  8  1  0     0  0
 30 31  1  0     0  0
 12 16  1  0     0  0
 30 32  1  0     0  0
 30  3  1  0     0  0
 31 33  2  0     0  0
 15 17  1  0     0  0
 33 34  1  0     0  0
  7  9  2  0     0  0
 34 35  2  0     0  0
 17 18  2  0     0  0
 35 36  1  0     0  0
  4  5  1  0     0  0
 36 37  2  0     0  0
 37 31  1  0     0  0
 18 19  1  0     0  0
 32 38  2  0     0  0
  8 10  1  0     0  0
 38 39  1  0     0  0
 19 20  2  0     0  0
 39 40  2  0     0  0
  2  3  1  0     0  0
 40 41  1  0     0  0
 20 21  1  0     0  0
 41 42  2  0     0  0
 42 32  1  0     0  0
 10 11  1  0     0  0
 25 43  2  0     0  0
 21 22  2  0     0  0
 43 44  1  0     0  0
 22 17  1  0     0  0
 44 45  2  0     0  0
  5  6  2  0     0  0
 45 46  1  0     0  0
 21 23  1  0     0  0
 46 47  2  0     0  0
 10 12  1  1     0  0
 47 48  1  0     0  0
 20 24  1  0     0  0
 48 49  2  0     0  0
 49 44  1  0     0  0
  6  1  1  0     0  0
 47 50  1  0     0  0
  7 25  1  0     0  0
 46 51  1  0     0  0
M  END
>  <prID>
543

>  <IDDB>
167905

>  <pIC50_HIV_Integrase>
6.809668302

>  <Q>
-2.957365245

>  <Activity_Integrase>
Active_Integrase

NA
NA
NA
NA
$$$$

  Accelrys05311914322D 1   1.00000     0.00000     0

 36 38  0     0  0            999 V2000
    3.5480   -5.6674    0.0000 C   0  0  0  0  0  0           0  0  0
    4.2784   -5.2454    0.0000 C   0  0  0  0  0  0           0  0  0
    5.0144   -5.6652    0.0000 N   0  0  0  0  0  0           0  0  0
    4.2605   -4.6038    0.0000 O   0  0  0  0  0  0           0  0  0
    5.7490   -5.2432    0.0000 C   0  0  2  0  0  0           0  0  0
    6.4808   -5.6629    0.0000 C   0  0  0  0  0  0           0  0  0
    5.7394   -4.3974    0.0000 C   0  0  0  0  0  0           0  0  0
    6.4821   -6.5087    0.0000 O   0  0  0  0  0  0           0  0  0
    7.2108   -5.2401    0.0000 N   0  0  0  0  0  0           0  0  0
    7.9389   -5.6589    0.0000 C   0  0  0  0  0  0           0  0  0
    8.6527   -5.2452    0.0000 C   0  0  0  0  0  0           0  0  0
    9.3679   -5.6566    0.0000 C   0  0  0  0  0  0           0  0  0
    9.3652   -6.4803    0.0000 C   0  0  0  0  0  0           0  0  0
   10.0795   -6.8915    0.0000 C   0  0  0  0  0  0           0  0  0
   10.7943   -6.4778    0.0000 C   0  0  0  0  0  0           0  0  0
   10.7903   -5.6485    0.0000 C   0  0  0  0  0  0           0  0  0
   10.0754   -5.2410    0.0000 C   0  0  0  0  0  0           0  0  0
   11.5027   -5.2324    0.0000 O   0  0  0  0  0  0           0  0  0
   11.5100   -6.8882    0.0000 O   0  0  0  0  0  0           0  0  0
    6.4491   -3.9768    0.0000 O   0  0  0  0  0  0           0  0  0
    6.4398   -3.1518    0.0000 C   0  0  0  0  0  0           0  0  0
    7.1495   -2.7312    0.0000 C   0  0  0  0  0  0           0  0  0
    7.8667   -3.1371    0.0000 C   0  0  0  0  0  0           0  0  0
    8.5759   -2.7171    0.0000 C   0  0  0  0  0  0           0  0  0
    8.5669   -1.8913    0.0000 C   0  0  0  0  0  0           0  0  0
    7.8428   -1.4872    0.0000 C   0  0  0  0  0  0           0  0  0
    7.1365   -1.9094    0.0000 C   0  0  0  0  0  0           0  0  0
    2.8195   -5.2412    0.0000 C   0  0  0  0  0  0           0  0  0
    2.0895   -5.6625    0.0000 C   0  0  0  0  0  0           0  0  0
    2.0892   -6.5070    0.0000 C   0  0  0  0  0  0           0  0  0
    2.8250   -6.9285    0.0000 C   0  0  0  0  0  0           0  0  0
    3.5520   -6.5048    0.0000 C   0  0  0  0  0  0           0  0  0
    1.3754   -6.9206    0.0000 O   0  0  0  0  0  0           0  0  0
    1.3751   -5.2498    0.0000 N   0  3  0  0  0  0           0  0  0
    1.3754   -4.4248    0.0000 O   0  5  0  0  0  0           0  0  0
    0.6605   -5.6621    0.0000 O   0  0  0  0  0  0           0  0  0
 16 18  1  0     0  0
  3  5  1  0     0  0
 15 19  1  0     0  0
  9 10  1  0     0  0
  7 20  1  0     0  0
  2  3  1  0     0  0
 20 21  1  0     0  0
 10 11  1  0     0  0
 21 22  1  0     0  0
  5  6  1  0     0  0
 22 23  2  0     0  0
 11 12  1  0     0  0
 23 24  1  0     0  0
  1  2  1  0     0  0
 24 25  2  0     0  0
 12 13  2  0     0  0
 25 26  1  0     0  0
  5  7  1  1     0  0
 26 27  2  0     0  0
 27 22  1  0     0  0
 13 14  1  0     0  0
  1 28  2  0     0  0
  2  4  2  0     0  0
 28 29  1  0     0  0
 14 15  2  0     0  0
 29 30  2  0     0  0
  6  8  2  0     0  0
 30 31  1  0     0  0
 15 16  1  0     0  0
 31 32  2  0     0  0
 32  1  1  0     0  0
 30 33  1  0     0  0
 16 17  2  0     0  0
 29 34  1  0     0  0
 17 12  1  0     0  0
 34 35  1  0     0  0
  6  9  1  0     0  0
 34 36  2  0     0  0
M  CHG  2  34   1  35  -1
M  END
>  <prID>
544

>  <IDDB>
167906

>  <pIC50_HIV_Integrase>
5.744727495

>  <Q>
-3.272575047

>  <Activity_Integrase>
Inactive_Integrase

NA
NA
NA
NA
$$$$

  Accelrys05311914322D 1   1.00000     0.00000     0

 53 58  0     0  0            999 V2000
    6.5438   -6.1549    0.0000 C   0  0  0  0  0  0           0  0  0
    7.2743   -5.7329    0.0000 C   0  0  0  0  0  0           0  0  0
    8.0102   -6.1527    0.0000 N   0  0  0  0  0  0           0  0  0
    7.2563   -5.0913    0.0000 O   0  0  0  0  0  0           0  0  0
    8.7449   -5.7307    0.0000 C   0  0  2  0  0  0           0  0  0
    9.4767   -6.1504    0.0000 C   0  0  0  0  0  0           0  0  0
    8.7353   -4.8849    0.0000 C   0  0  0  0  0  0           0  0  0
    9.4780   -6.9962    0.0000 O   0  0  0  0  0  0           0  0  0
   10.2066   -5.7276    0.0000 N   0  0  0  0  0  0           0  0  0
   10.9348   -6.1464    0.0000 C   0  0  0  0  0  0           0  0  0
    9.4450   -4.4643    0.0000 C   0  0  0  0  0  0           0  0  0
   10.1998   -4.7880    0.0000 C   0  0  0  0  0  0           0  0  0
   10.7448   -4.1686    0.0000 N   0  0  0  0  0  0           0  0  0
   10.3242   -3.4589    0.0000 C   0  0  0  0  0  0           0  0  0
    9.5193   -3.6397    0.0000 N   0  0  3  0  0  0           0  0  0
    8.8989   -3.0958    0.0000 C   0  0  3  0  0  0           0  0  0
    9.5348   -2.6533    0.0000 C   0  0  0  0  0  0           0  0  0
    8.3807   -2.4374    0.0000 C   0  0  0  0  0  0           0  0  0
    8.0964   -3.4630    0.0000 C   0  0  0  0  0  0           0  0  0
   10.2324   -2.9854    0.0000 C   0  0  0  0  0  0           0  0  0
   10.8678   -2.5436    0.0000 C   0  0  0  0  0  0           0  0  0
   10.8029   -1.7708    0.0000 C   0  0  0  0  0  0           0  0  0
   10.0971   -1.4420    0.0000 C   0  0  0  0  0  0           0  0  0
    9.4646   -1.8858    0.0000 C   0  0  0  0  0  0           0  0  0
    8.6947   -1.6637    0.0000 C   0  0  0  0  0  0           0  0  0
    8.1772   -1.0057    0.0000 C   0  0  0  0  0  0           0  0  0
    7.3469   -1.1250    0.0000 C   0  0  0  0  0  0           0  0  0
    7.0368   -1.9081    0.0000 C   0  0  0  0  0  0           0  0  0
    7.5562   -2.5628    0.0000 C   0  0  0  0  0  0           0  0  0
    7.3786   -2.9482    0.0000 C   0  0  0  0  0  0           0  0  0
    6.5766   -3.3147    0.0000 C   0  0  0  0  0  0           0  0  0
    6.4928   -4.1943    0.0000 C   0  0  0  0  0  0           0  0  0
    7.2174   -4.7060    0.0000 C   0  0  0  0  0  0           0  0  0
    8.0165   -4.3367    0.0000 C   0  0  0  0  0  0           0  0  0
   11.6486   -5.7327    0.0000 C   0  0  0  0  0  0           0  0  0
   12.3637   -6.1441    0.0000 C   0  0  0  0  0  0           0  0  0
   12.3611   -6.9678    0.0000 C   0  0  0  0  0  0           0  0  0
   13.0753   -7.3790    0.0000 C   0  0  0  0  0  0           0  0  0
   13.7901   -6.9653    0.0000 C   0  0  0  0  0  0           0  0  0
   13.7861   -6.1360    0.0000 C   0  0  0  0  0  0           0  0  0
   13.0713   -5.7285    0.0000 C   0  0  0  0  0  0           0  0  0
   14.4985   -5.7199    0.0000 O   0  0  0  0  0  0           0  0  0
   14.5058   -7.3757    0.0000 O   0  0  0  0  0  0           0  0  0
    5.8292   -5.7425    0.0000 C   0  0  0  0  0  0           0  0  0
    5.1148   -6.1552    0.0000 C   0  0  0  0  0  0           0  0  0
    4.4028   -5.7384    0.0000 C   0  0  0  0  0  0           0  0  0
    3.6889   -6.1504    0.0000 C   0  0  0  0  0  0           0  0  0
    3.6886   -6.9762    0.0000 C   0  0  0  0  0  0           0  0  0
    4.4082   -7.3884    0.0000 C   0  0  0  0  0  0           0  0  0
    5.1192   -6.9741    0.0000 C   0  0  0  0  0  0           0  0  0
    2.9746   -5.7377    0.0000 N   0  3  0  0  0  0           0  0  0
    2.9748   -4.9127    0.0000 O   0  5  0  0  0  0           0  0  0
    2.2600   -6.1500    0.0000 O   0  0  0  0  0  0           0  0  0
 25 26  1  0     0  0
  2  4  2  0     0  0
 26 27  2  0     0  0
 12 13  1  0     0  0
 27 28  1  0     0  0
 13 14  2  0     0  0
 28 29  2  0     0  0
 29 18  1  0     0  0
 14 15  1  0     0  0
 19 30  2  0     0  0
 15 11  1  0     0  0
 30 31  1  0     0  0
  6  8  2  0     0  0
 31 32  2  0     0  0
 15 16  1  0     0  0
 32 33  1  0     0  0
 33 34  2  0     0  0
 34 19  1  0     0  0
 16 17  1  0     0  0
 10 35  1  0     0  0
  6  9  1  0     0  0
 35 36  1  0     0  0
 16 18  1  0     0  0
 36 37  2  0     0  0
  3  5  1  0     0  0
 37 38  1  0     0  0
 16 19  1  0     0  0
 38 39  2  0     0  0
  9 10  1  0     0  0
 39 40  1  0     0  0
 17 20  2  0     0  0
 40 41  2  0     0  0
 41 36  1  0     0  0
  2  3  1  0     0  0
 40 42  1  0     0  0
 20 21  1  0     0  0
 39 43  1  0     0  0
  7 11  1  0     0  0
  1 44  2  0     0  0
 21 22  2  0     0  0
 44 45  1  0     0  0
 11 12  2  0     0  0
 45 46  2  0     0  0
 22 23  1  0     0  0
 46 47  1  0     0  0
  5  6  1  0     0  0
 47 48  2  0     0  0
 23 24  2  0     0  0
 48 49  1  0     0  0
 24 17  1  0     0  0
 49 50  2  0     0  0
 50 45  1  0     0  0
  1  2  1  0     0  0
 47 51  1  0     0  0
 18 25  2  0     0  0
 51 52  1  0     0  0
  5  7  1  1     0  0
 51 53  2  0     0  0
M  CHG  2  51   1  52  -1
M  END
>  <prID>
545

>  <IDDB>
167907

>  <pIC50_HIV_Integrase>
5.920818754

>  <Q>
-0.347064891

>  <Activity_Integrase>
Inactive_Integrase

NA
NA
NA
NA
$$$$

  Accelrys05311914322D 1   1.00000     0.00000     0

 52 56  0     0  0            999 V2000
    8.0172   -1.1738    0.0000 C   0  0  0  0  0  0           0  0  0
    7.1981   -1.1722    0.0000 C   0  0  0  0  0  0           0  0  0
    6.7890   -1.8825    0.0000 C   0  0  0  0  0  0           0  0  0
    7.1977   -2.5909    0.0000 C   0  0  0  0  0  0           0  0  0
    8.0199   -2.5886    0.0000 C   0  0  0  0  0  0           0  0  0
    8.4253   -1.8818    0.0000 C   0  0  0  0  0  0           0  0  0
    4.9326   -5.9538    0.0000 C   0  0  0  0  0  0           0  0  0
    5.6769   -6.3818    0.0000 N   0  0  0  0  0  0           0  0  0
    4.9146   -5.3038    0.0000 O   0  0  0  0  0  0           0  0  0
    6.4199   -5.9515    0.0000 C   0  0  2  0  0  0           0  0  0
    7.1558   -6.3796    0.0000 C   0  0  0  0  0  0           0  0  0
    6.4103   -5.0974    0.0000 C   0  0  0  0  0  0           0  0  0
    7.1571   -7.2337    0.0000 O   0  0  0  0  0  0           0  0  0
    7.8983   -5.9484    0.0000 N   0  0  0  0  0  0           0  0  0
    8.6348   -6.3756    0.0000 C   0  0  0  0  0  0           0  0  0
    7.1241   -4.6726    0.0000 C   0  0  0  0  0  0           0  0  0
    9.3493   -5.9590    0.0000 C   0  0  0  0  0  0           0  0  0
    4.2285   -6.3727    0.0000 C   0  0  0  0  0  0           0  0  0
    3.5180   -5.9736    0.0000 C   0  0  0  0  0  0           0  0  0
    2.8186   -6.3918    0.0000 C   0  0  0  0  0  0           0  0  0
    2.8304   -7.2092    0.0000 C   0  0  0  0  0  0           0  0  0
    3.5477   -7.6067    0.0000 C   0  0  0  0  0  0           0  0  0
    4.2441   -7.1861    0.0000 C   0  0  0  0  0  0           0  0  0
    2.1269   -7.6291    0.0000 O   0  0  0  0  0  0           0  0  0
    7.1140   -3.8560    0.0000 C   0  0  0  0  0  0           0  0  0
    7.8191   -3.4389    0.0000 O   0  0  0  0  0  0           0  0  0
    6.4028   -3.4565    0.0000 N   0  0  0  0  0  0           0  0  0
    2.1066   -5.9938    0.0000 N   0  3  0  0  0  0           0  0  0
    6.3926   -2.6399    0.0000 C   0  0  0  0  0  0           0  0  0
    5.6815   -2.2404    0.0000 C   0  0  3  0  0  0           0  0  0
    5.6713   -1.4238    0.0000 C   0  0  0  0  0  0           0  0  0
    4.9805   -2.6575    0.0000 C   0  0  0  0  0  0           0  0  0
    6.3723   -1.0104    0.0000 C   0  0  0  0  0  0           0  0  0
    6.3625   -0.1946    0.0000 C   0  0  0  0  0  0           0  0  0
    5.6508    0.2057    0.0000 C   0  0  0  0  0  0           0  0  0
    4.9475   -0.2159    0.0000 C   0  0  0  0  0  0           0  0  0
    4.9608   -1.0303    0.0000 C   0  0  0  0  0  0           0  0  0
    4.2691   -2.2556    0.0000 C   0  0  0  0  0  0           0  0  0
    3.5686   -2.6720    0.0000 C   0  0  0  0  0  0           0  0  0
    3.5783   -3.4895    0.0000 C   0  0  0  0  0  0           0  0  0
    4.2945   -3.8888    0.0000 C   0  0  0  0  0  0           0  0  0
    4.9962   -3.4700    0.0000 C   0  0  0  0  0  0           0  0  0
   10.0655   -6.3685    0.0000 C   0  0  0  0  0  0           0  0  0
   10.0673   -7.1927    0.0000 C   0  0  0  0  0  0           0  0  0
   10.7827   -7.6022    0.0000 C   0  0  0  0  0  0           0  0  0
   11.4964   -7.1867    0.0000 C   0  0  0  0  0  0           0  0  0
   11.4903   -6.3574    0.0000 C   0  0  0  0  0  0           0  0  0
   10.7744   -5.9517    0.0000 C   0  0  0  0  0  0           0  0  0
   12.2131   -7.5952    0.0000 O   0  0  0  0  0  0           0  0  0
   12.2016   -5.9394    0.0000 O   0  0  0  0  0  0           0  0  0
    2.0952   -5.1688    0.0000 O   0  5  0  0  0  0           0  0  0
    1.3979   -6.4161    0.0000 O   0  0  0  0  0  0           0  0  0
 25 26  2  0     0  0
  1  2  2  0     0  0
 25 27  1  0     0  0
 11 14  1  0     0  0
 20 28  1  0     0  0
  3  4  2  0     0  0
 27 29  1  0     0  0
 14 15  1  0     0  0
 29 30  1  0     0  0
  7  8  1  0     0  0
 30 31  1  0     0  0
 12 16  1  0     0  0
 30 32  1  0     0  0
 30  3  1  0     0  0
 31 33  2  0     0  0
 15 17  1  0     0  0
 33 34  1  0     0  0
  7  9  2  0     0  0
 34 35  2  0     0  0
  7 18  1  0     0  0
 35 36  1  0     0  0
  4  5  1  0     0  0
 36 37  2  0     0  0
 37 31  1  0     0  0
 18 19  2  0     0  0
 32 38  2  0     0  0
  8 10  1  0     0  0
 38 39  1  0     0  0
 19 20  1  0     0  0
 39 40  2  0     0  0
  2  3  1  0     0  0
 40 41  1  0     0  0
 20 21  2  0     0  0
 41 42  2  0     0  0
 42 32  1  0     0  0
 10 11  1  0     0  0
 17 43  1  0     0  0
 21 22  1  0     0  0
 43 44  2  0     0  0
  5  6  2  0     0  0
 44 45  1  0     0  0
 22 23  2  0     0  0
 45 46  2  0     0  0
 23 18  1  0     0  0
 46 47  1  0     0  0
 10 12  1  1     0  0
 47 48  2  0     0  0
 48 43  1  0     0  0
 21 24  1  0     0  0
 46 49  1  0     0  0
  6  1  1  0     0  0
 47 50  1  0     0  0
 16 25  1  0     0  0
 28 51  1  0     0  0
 11 13  2  0     0  0
 28 52  2  0     0  0
M  CHG  2  28   1  51  -1
M  END
>  <prID>
546

>  <IDDB>
167908

>  <pIC50_HIV_Integrase>
6.240332155

>  <Q>
-2.867265235

>  <Activity_Integrase>
Active_Integrase

NA
NA
NA
NA
$$$$

  Accelrys05311914322D 1   1.00000     0.00000     0

 41 43  0     0  0            999 V2000
    4.3146   -5.6007    0.0000 C   0  0  0  0  0  0           0  0  0
    5.0326   -5.1871    0.0000 C   0  0  0  0  0  0           0  0  0
    5.7519   -5.5985    0.0000 N   0  0  0  0  0  0           0  0  0
    5.0313   -4.3579    0.0000 O   0  0  0  0  0  0           0  0  0
    6.4699   -5.1849    0.0000 C   0  0  2  0  0  0           0  0  0
    7.1892   -5.5962    0.0000 C   0  0  0  0  0  0           0  0  0
    6.4603   -4.3557    0.0000 C   0  0  0  0  0  0           0  0  0
    7.1905   -6.4254    0.0000 O   0  0  0  0  0  0           0  0  0
    7.9072   -5.1826    0.0000 N   0  0  0  0  0  0           0  0  0
    8.6264   -5.5940    0.0000 C   0  0  0  0  0  0           0  0  0
    9.3403   -5.1804    0.0000 C   0  0  0  0  0  0           0  0  0
   10.0595   -5.5918    0.0000 C   0  0  0  0  0  0           0  0  0
   10.0569   -6.4219    0.0000 C   0  0  0  0  0  0           0  0  0
   10.7753   -6.8374    0.0000 C   0  0  0  0  0  0           0  0  0
   11.4943   -6.4195    0.0000 C   0  0  0  0  0  0           0  0  0
   11.4903   -5.5861    0.0000 C   0  0  0  0  0  0           0  0  0
   10.7713   -5.1785    0.0000 C   0  0  0  0  0  0           0  0  0
   12.2068   -5.1700    0.0000 O   0  0  0  0  0  0           0  0  0
   12.2141   -6.8341    0.0000 O   0  0  0  0  0  0           0  0  0
    7.1740   -3.9307    0.0000 C   0  0  0  0  0  0           0  0  0
    7.1644   -3.1016    0.0000 C   0  0  0  0  0  0           0  0  0
    7.8782   -2.6808    0.0000 C   0  0  0  0  0  0           0  0  0
    7.8685   -1.8517    0.0000 N   0  0  0  0  0  0           0  0  0
    8.5782   -1.4309    0.0000 C   0  0  0  0  0  0           0  0  0
    8.5686   -0.6060    0.0000 O   0  0  0  0  0  0           0  0  0
    9.2974   -1.8351    0.0000 O   0  0  0  0  0  0           0  0  0
    3.5996   -5.1813    0.0000 C   0  0  0  0  0  0           0  0  0
    2.8821   -5.5942    0.0000 C   0  0  0  0  0  0           0  0  0
    2.8808   -6.4237    0.0000 C   0  0  0  0  0  0           0  0  0
    3.6031   -6.8386    0.0000 C   0  0  0  0  0  0           0  0  0
    4.3176   -6.4232    0.0000 C   0  0  0  0  0  0           0  0  0
    3.6030   -4.3563    0.0000 O   0  0  0  0  0  0           0  0  0
    2.1665   -6.8365    0.0000 O   0  0  0  0  0  0           0  0  0
    5.0335   -6.8334    0.0000 O   0  0  0  0  0  0           0  0  0
   10.0070   -1.4143    0.0000 C   0  0  0  0  0  0           0  0  0
   10.7262   -1.8185    0.0000 C   0  0  0  0  0  0           0  0  0
   10.7318   -2.6427    0.0000 C   0  0  0  0  0  0           0  0  0
   11.4502   -3.0468    0.0000 C   0  0  0  0  0  0           0  0  0
   12.1608   -2.6260    0.0000 C   0  0  0  0  0  0           0  0  0
   12.1485   -1.7968    0.0000 C   0  0  0  0  0  0           0  0  0
   11.4296   -1.3965    0.0000 C   0  0  0  0  0  0           0  0  0
  2  3  1  0     0  0
 20 21  1  0     0  0
 10 11  1  0     0  0
 21 22  1  0     0  0
  5  6  1  0     0  0
 22 23  1  0     0  0
 11 12  1  0     0  0
 23 24  1  0     0  0
  1  2  1  0     0  0
 24 25  2  0     0  0
 12 13  2  0     0  0
 24 26  1  0     0  0
  5  7  1  1     0  0
  1 27  2  0     0  0
 13 14  1  0     0  0
 27 28  1  0     0  0
  2  4  2  0     0  0
 28 29  2  0     0  0
 14 15  2  0     0  0
 29 30  1  0     0  0
  6  8  2  0     0  0
 30 31  2  0     0  0
 31  1  1  0     0  0
 15 16  1  0     0  0
 27 32  1  0     0  0
 29 33  1  0     0  0
 16 17  2  0     0  0
 31 34  1  0     0  0
 17 12  1  0     0  0
 26 35  1  0     0  0
  6  9  1  0     0  0
 35 36  1  0     0  0
 16 18  1  0     0  0
 36 37  2  0     0  0
  3  5  1  0     0  0
 37 38  1  0     0  0
 15 19  1  0     0  0
 38 39  2  0     0  0
  9 10  1  0     0  0
 39 40  1  0     0  0
  7 20  1  0     0  0
 40 41  2  0     0  0
 41 36  1  0     0  0
M  END
>  <prID>
547

>  <IDDB>
167909

>  <pIC50_HIV_Integrase>
5.795880017

>  <Q>
-6.497805503

>  <Activity_Integrase>
Inactive_Integrase

NA
NA
NA
NA
$$$$

  Accelrys05311914322D 1   1.00000     0.00000     0

 48 52  0     0  0            999 V2000
    4.8938   -4.8882    0.0000 C   0  0  0  0  0  0           0  0  0
    5.6451   -4.4538    0.0000 C   0  0  0  0  0  0           0  0  0
    6.4019   -4.8860    0.0000 N   0  0  0  0  0  0           0  0  0
    5.6438   -3.5871    0.0000 O   0  0  0  0  0  0           0  0  0
    7.1532   -4.4515    0.0000 C   0  0  2  0  0  0           0  0  0
    7.9058   -4.8837    0.0000 C   0  0  0  0  0  0           0  0  0
    7.1436   -3.5849    0.0000 C   0  0  0  0  0  0           0  0  0
    7.9071   -5.7504    0.0000 O   0  0  0  0  0  0           0  0  0
    8.6525   -4.4484    0.0000 N   0  0  0  0  0  0           0  0  0
    9.4014   -4.8797    0.0000 C   0  0  0  0  0  0           0  0  0
    9.4038   -5.7422    0.0000 C   0  0  0  0  0  0           0  0  0
   10.1527   -6.1694    0.0000 C   0  0  0  0  0  0           0  0  0
   10.1495   -7.0344    0.0000 C   0  0  0  0  0  0           0  0  0
   10.8977   -7.4615    0.0000 C   0  0  0  0  0  0           0  0  0
   11.6453   -7.0303    0.0000 C   0  0  0  0  0  0           0  0  0
   11.6403   -6.1593    0.0000 C   0  0  0  0  0  0           0  0  0
   10.8916   -5.7360    0.0000 C   0  0  0  0  0  0           0  0  0
   12.3855   -5.7256    0.0000 O   0  0  0  0  0  0           0  0  0
   12.3948   -7.4565    0.0000 O   0  0  0  0  0  0           0  0  0
    4.1464   -4.4542    0.0000 C   0  0  0  0  0  0           0  0  0
    7.8866   -3.1433    0.0000 S   0  0  0  0  0  0           0  0  0
    3.4112   -4.8795    0.0000 C   0  0  0  0  0  0           0  0  0
    2.6800   -4.4531    0.0000 C   0  0  0  0  0  0           0  0  0
    1.9496   -4.8777    0.0000 C   0  0  0  0  0  0           0  0  0
    1.9494   -5.7244    0.0000 C   0  0  0  0  0  0           0  0  0
    2.6858   -6.1448    0.0000 C   0  0  0  0  0  0           0  0  0
    3.4133   -5.7220    0.0000 C   0  0  0  0  0  0           0  0  0
    7.8720   -2.2975    0.0000 C   0  0  3  0  0  0           0  0  0
    7.9021   -1.5177    0.0000 C   0  0  0  0  0  0           0  0  0
    7.1316   -2.2898    0.0000 C   0  0  0  0  0  0           0  0  0
    8.6965   -2.3177    0.0000 C   0  0  0  0  0  0           0  0  0
    8.5911   -1.1563    0.0000 C   0  0  0  0  0  0           0  0  0
    8.6173   -0.3773    0.0000 C   0  0  0  0  0  0           0  0  0
    7.9559    0.0338    0.0000 C   0  0  0  0  0  0           0  0  0
    7.2667   -0.3356    0.0000 C   0  0  0  0  0  0           0  0  0
    7.2437   -1.1135    0.0000 C   0  0  0  0  0  0           0  0  0
    9.0905   -3.0463    0.0000 C   0  0  0  0  0  0           0  0  0
    9.9142   -3.0668    0.0000 C   0  0  0  0  0  0           0  0  0
   10.3427   -2.3595    0.0000 C   0  0  0  0  0  0           0  0  0
    9.9457   -1.6343    0.0000 C   0  0  0  0  0  0           0  0  0
    9.1232   -1.6173    0.0000 C   0  0  0  0  0  0           0  0  0
    6.7725   -1.6413    0.0000 C   0  0  0  0  0  0           0  0  0
    6.0286   -1.6333    0.0000 C   0  0  0  0  0  0           0  0  0
    5.6510   -2.2734    0.0000 C   0  0  0  0  0  0           0  0  0
    6.0185   -2.9228    0.0000 C   0  0  0  0  0  0           0  0  0
    6.7612   -2.9277    0.0000 C   0  0  0  0  0  0           0  0  0
    4.1289   -6.1326    0.0000 O   0  0  0  0  0  0           0  0  0
    2.6806   -3.6281    0.0000 F   0  0  0  0  0  0           0  0  0
 23 24  1  0     0  0
  1  2  1  0     0  0
 24 25  2  0     0  0
 12 13  2  0     0  0
 25 26  1  0     0  0
  5  7  1  1     0  0
 26 27  2  0     0  0
 27 22  1  0     0  0
 13 14  1  0     0  0
 21 28  1  0     0  0
  2  4  2  0     0  0
 28 29  1  0     0  0
 14 15  2  0     0  0
 28 30  1  0     0  0
  6  8  2  0     0  0
 28 31  1  0     0  0
 15 16  1  0     0  0
 29 32  2  0     0  0
 32 33  1  0     0  0
 16 17  2  0     0  0
 33 34  2  0     0  0
 17 12  1  0     0  0
 34 35  1  0     0  0
  6  9  1  0     0  0
 35 36  2  0     0  0
 36 29  1  0     0  0
 16 18  1  0     0  0
 31 37  2  0     0  0
  3  5  1  0     0  0
 37 38  1  0     0  0
 15 19  1  0     0  0
 38 39  2  0     0  0
  9 10  1  0     0  0
 39 40  1  0     0  0
  1 20  2  0     0  0
 40 41  2  0     0  0
 41 31  1  0     0  0
  2  3  1  0     0  0
 30 42  2  0     0  0
  7 21  1  0     0  0
 42 43  1  0     0  0
 10 11  1  0     0  0
 43 44  2  0     0  0
 20 22  1  0     0  0
 44 45  1  0     0  0
  5  6  1  0     0  0
 45 46  2  0     0  0
 46 30  1  0     0  0
 22 23  2  0     0  0
 27 47  1  0     0  0
 11 12  1  0     0  0
 23 48  1  0     0  0
M  END
>  <prID>
548

>  <IDDB>
167910

>  <pIC50_HIV_Integrase>
5.853871964

>  <Q>
-2.67531458

>  <Activity_Integrase>
Inactive_Integrase

NA
NA
NA
NA
$$$$

  Accelrys05311914322D 1   1.00000     0.00000     0

 53 58  0     0  0            999 V2000
    4.9646   -5.6757    0.0000 C   0  0  0  0  0  0           0  0  0
    5.6951   -5.2538    0.0000 C   0  0  0  0  0  0           0  0  0
    6.4311   -5.6735    0.0000 N   0  0  0  0  0  0           0  0  0
    5.6771   -4.6121    0.0000 O   0  0  0  0  0  0           0  0  0
    7.1657   -5.2515    0.0000 C   0  0  2  0  0  0           0  0  0
    7.8975   -5.6712    0.0000 C   0  0  0  0  0  0           0  0  0
    7.1561   -4.4057    0.0000 C   0  0  0  0  0  0           0  0  0
    7.8988   -6.5171    0.0000 O   0  0  0  0  0  0           0  0  0
    8.6275   -5.2484    0.0000 N   0  0  0  0  0  0           0  0  0
    9.3556   -5.6672    0.0000 C   0  0  0  0  0  0           0  0  0
    7.8658   -3.9851    0.0000 C   0  0  0  0  0  0           0  0  0
    8.6206   -4.3088    0.0000 C   0  0  0  0  0  0           0  0  0
    9.1657   -3.6895    0.0000 N   0  0  0  0  0  0           0  0  0
    8.7450   -2.9797    0.0000 C   0  0  0  0  0  0           0  0  0
    7.9401   -3.1605    0.0000 N   0  0  3  0  0  0           0  0  0
    7.3198   -2.6166    0.0000 C   0  0  3  0  0  0           0  0  0
    7.9556   -2.1741    0.0000 C   0  0  0  0  0  0           0  0  0
    6.8015   -1.9582    0.0000 C   0  0  0  0  0  0           0  0  0
    6.5172   -2.9838    0.0000 C   0  0  0  0  0  0           0  0  0
    8.6532   -2.5063    0.0000 C   0  0  0  0  0  0           0  0  0
    9.2887   -2.0645    0.0000 C   0  0  0  0  0  0           0  0  0
    9.2237   -1.2917    0.0000 C   0  0  0  0  0  0           0  0  0
    8.5179   -0.9628    0.0000 C   0  0  0  0  0  0           0  0  0
    7.8854   -1.4066    0.0000 C   0  0  0  0  0  0           0  0  0
    7.1156   -1.1846    0.0000 C   0  0  0  0  0  0           0  0  0
    6.5981   -0.5265    0.0000 C   0  0  0  0  0  0           0  0  0
    5.7678   -0.6458    0.0000 C   0  0  0  0  0  0           0  0  0
    5.4576   -1.4289    0.0000 C   0  0  0  0  0  0           0  0  0
    5.9770   -2.0836    0.0000 C   0  0  0  0  0  0           0  0  0
    5.7995   -2.4691    0.0000 C   0  0  0  0  0  0           0  0  0
    4.9975   -2.8356    0.0000 C   0  0  0  0  0  0           0  0  0
    4.9136   -3.7151    0.0000 C   0  0  0  0  0  0           0  0  0
    5.6383   -4.2269    0.0000 C   0  0  0  0  0  0           0  0  0
    6.4373   -3.8576    0.0000 C   0  0  0  0  0  0           0  0  0
   10.0694   -5.2536    0.0000 C   0  0  0  0  0  0           0  0  0
   10.7845   -5.6649    0.0000 C   0  0  0  0  0  0           0  0  0
   10.7819   -6.4886    0.0000 C   0  0  0  0  0  0           0  0  0
   11.4962   -6.8999    0.0000 C   0  0  0  0  0  0           0  0  0
   12.2110   -6.4861    0.0000 C   0  0  0  0  0  0           0  0  0
   12.2070   -5.6569    0.0000 C   0  0  0  0  0  0           0  0  0
   11.4921   -5.2493    0.0000 C   0  0  0  0  0  0           0  0  0
   12.9193   -5.2407    0.0000 O   0  0  0  0  0  0           0  0  0
   12.9267   -6.8965    0.0000 O   0  0  0  0  0  0           0  0  0
    4.2501   -5.2634    0.0000 C   0  0  0  0  0  0           0  0  0
    3.5357   -5.6760    0.0000 C   0  0  0  0  0  0           0  0  0
    2.8236   -5.2592    0.0000 C   0  0  0  0  0  0           0  0  0
    2.1097   -5.6712    0.0000 C   0  0  0  0  0  0           0  0  0
    2.1095   -6.4971    0.0000 C   0  0  0  0  0  0           0  0  0
    2.8291   -6.9093    0.0000 C   0  0  0  0  0  0           0  0  0
    3.5400   -6.4949    0.0000 C   0  0  0  0  0  0           0  0  0
    1.3954   -5.2585    0.0000 O   0  0  0  0  0  0           0  0  0
    1.3956   -6.9107    0.0000 O   0  0  0  0  0  0           0  0  0
    2.8321   -7.7343    0.0000 O   0  0  0  0  0  0           0  0  0
 25 26  1  0     0  0
  2  4  2  0     0  0
 26 27  2  0     0  0
 12 13  1  0     0  0
 27 28  1  0     0  0
 13 14  2  0     0  0
 28 29  2  0     0  0
 29 18  1  0     0  0
 14 15  1  0     0  0
 19 30  2  0     0  0
 15 11  1  0     0  0
 30 31  1  0     0  0
  6  8  2  0     0  0
 31 32  2  0     0  0
 15 16  1  0     0  0
 32 33  1  0     0  0
 33 34  2  0     0  0
 34 19  1  0     0  0
 16 17  1  0     0  0
 10 35  1  0     0  0
  6  9  1  0     0  0
 35 36  1  0     0  0
 16 18  1  0     0  0
 36 37  2  0     0  0
  3  5  1  0     0  0
 37 38  1  0     0  0
 16 19  1  0     0  0
 38 39  2  0     0  0
  9 10  1  0     0  0
 39 40  1  0     0  0
 17 20  2  0     0  0
 40 41  2  0     0  0
 41 36  1  0     0  0
  2  3  1  0     0  0
 40 42  1  0     0  0
 20 21  1  0     0  0
 39 43  1  0     0  0
  7 11  1  0     0  0
  1 44  2  0     0  0
 21 22  2  0     0  0
 44 45  1  0     0  0
 11 12  2  0     0  0
 45 46  2  0     0  0
 22 23  1  0     0  0
 46 47  1  0     0  0
  5  6  1  0     0  0
 47 48  2  0     0  0
 23 24  2  0     0  0
 48 49  1  0     0  0
 24 17  1  0     0  0
 49 50  2  0     0  0
 50 45  1  0     0  0
  1  2  1  0     0  0
 47 51  1  0     0  0
 18 25  2  0     0  0
 48 52  1  0     0  0
  5  7  1  1     0  0
 49 53  1  0     0  0
M  END
>  <prID>
549

>  <IDDB>
167911

>  <pIC50_HIV_Integrase>
6.653647026

>  <Q>
-2.629135688

>  <Activity_Integrase>
Active_Integrase

NA
NA
NA
NA
$$$$

  Accelrys05311914322D 1   1.00000     0.00000     0

 40 43  0     0  0            999 V2000
    4.9646   -5.6757    0.0000 C   0  0  0  0  0  0           0  0  0
    5.6951   -5.2538    0.0000 C   0  0  0  0  0  0           0  0  0
    6.4311   -5.6735    0.0000 N   0  0  0  0  0  0           0  0  0
    5.6771   -4.6121    0.0000 O   0  0  0  0  0  0           0  0  0
    7.1657   -5.2515    0.0000 C   0  0  2  0  0  0           0  0  0
    7.8975   -5.6712    0.0000 C   0  0  0  0  0  0           0  0  0
    7.1561   -4.4057    0.0000 C   0  0  0  0  0  0           0  0  0
    7.8988   -6.5171    0.0000 O   0  0  0  0  0  0           0  0  0
    8.6275   -5.2484    0.0000 N   0  0  0  0  0  0           0  0  0
    9.3556   -5.6672    0.0000 C   0  0  0  0  0  0           0  0  0
    7.8658   -3.9851    0.0000 C   0  0  0  0  0  0           0  0  0
    8.6206   -4.3088    0.0000 C   0  0  0  0  0  0           0  0  0
    9.1657   -3.6895    0.0000 N   0  0  0  0  0  0           0  0  0
    8.7450   -2.9797    0.0000 C   0  0  0  0  0  0           0  0  0
    7.9401   -3.1605    0.0000 N   0  0  3  0  0  0           0  0  0
   10.0694   -5.2536    0.0000 C   0  0  0  0  0  0           0  0  0
   10.7845   -5.6649    0.0000 C   0  0  0  0  0  0           0  0  0
   10.7819   -6.4886    0.0000 C   0  0  0  0  0  0           0  0  0
   11.4962   -6.8999    0.0000 C   0  0  0  0  0  0           0  0  0
   12.2110   -6.4861    0.0000 C   0  0  0  0  0  0           0  0  0
   12.2070   -5.6569    0.0000 C   0  0  0  0  0  0           0  0  0
   11.4921   -5.2493    0.0000 C   0  0  0  0  0  0           0  0  0
   12.9193   -5.2407    0.0000 O   0  0  0  0  0  0           0  0  0
   12.9267   -6.8965    0.0000 O   0  0  0  0  0  0           0  0  0
    4.2501   -5.2634    0.0000 C   0  0  0  0  0  0           0  0  0
    3.5357   -5.6760    0.0000 C   0  0  0  0  0  0           0  0  0
    2.8236   -5.2592    0.0000 C   0  0  0  0  0  0           0  0  0
    2.1097   -5.6712    0.0000 C   0  0  0  0  0  0           0  0  0
    2.1095   -6.4971    0.0000 C   0  0  0  0  0  0           0  0  0
    2.8291   -6.9093    0.0000 C   0  0  0  0  0  0           0  0  0
    3.5400   -6.4949    0.0000 C   0  0  0  0  0  0           0  0  0
    1.3954   -5.2585    0.0000 O   0  0  0  0  0  0           0  0  0
    1.3956   -6.9107    0.0000 O   0  0  0  0  0  0           0  0  0
    7.3198   -2.6166    0.0000 C   0  0  0  0  0  0           0  0  0
    7.4806   -1.8075    0.0000 C   0  0  0  0  0  0           0  0  0
    8.2611   -1.5469    0.0000 C   0  0  0  0  0  0           0  0  0
    8.4222   -0.7386    0.0000 C   0  0  0  0  0  0           0  0  0
    7.8015   -0.1938    0.0000 C   0  0  0  0  0  0           0  0  0
    7.0171   -0.4629    0.0000 C   0  0  0  0  0  0           0  0  0
    6.8598   -1.2706    0.0000 C   0  0  0  0  0  0           0  0  0
 19 20  2  0     0  0
  2  3  1  0     0  0
 20 21  1  0     0  0
  7 11  1  0     0  0
 21 22  2  0     0  0
 22 17  1  0     0  0
 11 12  2  0     0  0
 21 23  1  0     0  0
  5  6  1  0     0  0
 20 24  1  0     0  0
  1  2  1  0     0  0
  1 25  2  0     0  0
  5  7  1  1     0  0
 25 26  1  0     0  0
  2  4  2  0     0  0
 26 27  2  0     0  0
 12 13  1  0     0  0
 27 28  1  0     0  0
 13 14  2  0     0  0
 28 29  2  0     0  0
 14 15  1  0     0  0
 29 30  1  0     0  0
 15 11  1  0     0  0
 30 31  2  0     0  0
 31 26  1  0     0  0
  6  8  2  0     0  0
 28 32  1  0     0  0
 10 16  1  0     0  0
 29 33  1  0     0  0
 15 34  1  0     0  0
 16 17  1  0     0  0
 34 35  1  0     0  0
  6  9  1  0     0  0
 35 36  2  0     0  0
 17 18  2  0     0  0
 36 37  1  0     0  0
  3  5  1  0     0  0
 37 38  2  0     0  0
 18 19  1  0     0  0
 38 39  1  0     0  0
  9 10  1  0     0  0
 39 40  2  0     0  0
 40 35  1  0     0  0
M  END
>  <prID>
550

>  <IDDB>
167912

>  <pIC50_HIV_Integrase>
6.077793723

>  <Q>
-2.950416666

>  <Activity_Integrase>
Active_Integrase

NA
NA
NA
NA
$$$$

  Accelrys05311914322D 1   1.00000     0.00000     0

 53 58  0     0  0            999 V2000
    4.9646   -5.6757    0.0000 C   0  0  0  0  0  0           0  0  0
    5.6951   -5.2538    0.0000 C   0  0  0  0  0  0           0  0  0
    6.4311   -5.6735    0.0000 N   0  0  0  0  0  0           0  0  0
    5.6771   -4.6121    0.0000 O   0  0  0  0  0  0           0  0  0
    7.1657   -5.2515    0.0000 C   0  0  2  0  0  0           0  0  0
    7.8975   -5.6712    0.0000 C   0  0  0  0  0  0           0  0  0
    7.1561   -4.4057    0.0000 C   0  0  0  0  0  0           0  0  0
    7.8988   -6.5171    0.0000 O   0  0  0  0  0  0           0  0  0
    8.6275   -5.2484    0.0000 N   0  0  0  0  0  0           0  0  0
    9.3556   -5.6672    0.0000 C   0  0  0  0  0  0           0  0  0
    7.8658   -3.9851    0.0000 C   0  0  0  0  0  0           0  0  0
    8.6206   -4.3088    0.0000 C   0  0  0  0  0  0           0  0  0
    9.1657   -3.6895    0.0000 N   0  0  0  0  0  0           0  0  0
    8.7450   -2.9797    0.0000 C   0  0  0  0  0  0           0  0  0
    7.9401   -3.1605    0.0000 N   0  0  3  0  0  0           0  0  0
    7.3198   -2.6166    0.0000 C   0  0  3  0  0  0           0  0  0
    7.9556   -2.1741    0.0000 C   0  0  0  0  0  0           0  0  0
    6.8015   -1.9582    0.0000 C   0  0  0  0  0  0           0  0  0
    6.5172   -2.9838    0.0000 C   0  0  0  0  0  0           0  0  0
    8.6532   -2.5063    0.0000 C   0  0  0  0  0  0           0  0  0
    9.2887   -2.0645    0.0000 C   0  0  0  0  0  0           0  0  0
    9.2237   -1.2917    0.0000 C   0  0  0  0  0  0           0  0  0
    8.5179   -0.9628    0.0000 C   0  0  0  0  0  0           0  0  0
    7.8854   -1.4066    0.0000 C   0  0  0  0  0  0           0  0  0
    7.1156   -1.1846    0.0000 C   0  0  0  0  0  0           0  0  0
    6.5981   -0.5265    0.0000 C   0  0  0  0  0  0           0  0  0
    5.7678   -0.6458    0.0000 C   0  0  0  0  0  0           0  0  0
    5.4576   -1.4289    0.0000 C   0  0  0  0  0  0           0  0  0
    5.9770   -2.0836    0.0000 C   0  0  0  0  0  0           0  0  0
    5.7995   -2.4691    0.0000 C   0  0  0  0  0  0           0  0  0
    4.9975   -2.8356    0.0000 C   0  0  0  0  0  0           0  0  0
    4.9136   -3.7151    0.0000 C   0  0  0  0  0  0           0  0  0
    5.6383   -4.2269    0.0000 C   0  0  0  0  0  0           0  0  0
    6.4373   -3.8576    0.0000 C   0  0  0  0  0  0           0  0  0
   10.0694   -5.2536    0.0000 C   0  0  0  0  0  0           0  0  0
   10.7845   -5.6649    0.0000 C   0  0  0  0  0  0           0  0  0
   10.7819   -6.4886    0.0000 C   0  0  0  0  0  0           0  0  0
   11.4962   -6.8999    0.0000 C   0  0  0  0  0  0           0  0  0
   12.2110   -6.4861    0.0000 C   0  0  0  0  0  0           0  0  0
   12.2070   -5.6569    0.0000 C   0  0  0  0  0  0           0  0  0
   11.4921   -5.2493    0.0000 C   0  0  0  0  0  0           0  0  0
   12.9193   -5.2407    0.0000 O   0  0  0  0  0  0           0  0  0
   12.9267   -6.8965    0.0000 O   0  0  0  0  0  0           0  0  0
    4.2501   -5.2634    0.0000 C   0  0  0  0  0  0           0  0  0
    3.5357   -5.6760    0.0000 C   0  0  0  0  0  0           0  0  0
    2.8236   -5.2592    0.0000 C   0  0  0  0  0  0           0  0  0
    2.1097   -5.6712    0.0000 C   0  0  0  0  0  0           0  0  0
    2.1095   -6.4971    0.0000 C   0  0  0  0  0  0           0  0  0
    2.8291   -6.9093    0.0000 C   0  0  0  0  0  0           0  0  0
    3.5400   -6.4949    0.0000 C   0  0  0  0  0  0           0  0  0
    1.3956   -6.9107    0.0000 N   0  3  0  0  0  0           0  0  0
    0.6805   -6.4993    0.0000 O   0  5  0  0  0  0           0  0  0
    1.3969   -7.7357    0.0000 O   0  0  0  0  0  0           0  0  0
 25 26  1  0     0  0
  2  4  2  0     0  0
 26 27  2  0     0  0
 12 13  1  0     0  0
 27 28  1  0     0  0
 13 14  2  0     0  0
 28 29  2  0     0  0
 29 18  1  0     0  0
 14 15  1  0     0  0
 19 30  2  0     0  0
 15 11  1  0     0  0
 30 31  1  0     0  0
  6  8  2  0     0  0
 31 32  2  0     0  0
 15 16  1  0     0  0
 32 33  1  0     0  0
 33 34  2  0     0  0
 34 19  1  0     0  0
 16 17  1  0     0  0
 10 35  1  0     0  0
  6  9  1  0     0  0
 35 36  1  0     0  0
 16 18  1  0     0  0
 36 37  2  0     0  0
  3  5  1  0     0  0
 37 38  1  0     0  0
 16 19  1  0     0  0
 38 39  2  0     0  0
  9 10  1  0     0  0
 39 40  1  0     0  0
 17 20  2  0     0  0
 40 41  2  0     0  0
 41 36  1  0     0  0
  2  3  1  0     0  0
 40 42  1  0     0  0
 20 21  1  0     0  0
 39 43  1  0     0  0
  7 11  1  0     0  0
  1 44  2  0     0  0
 21 22  2  0     0  0
 44 45  1  0     0  0
 11 12  2  0     0  0
 45 46  2  0     0  0
 22 23  1  0     0  0
 46 47  1  0     0  0
  5  6  1  0     0  0
 47 48  2  0     0  0
 23 24  2  0     0  0
 48 49  1  0     0  0
 24 17  1  0     0  0
 49 50  2  0     0  0
 50 45  1  0     0  0
  1  2  1  0     0  0
 48 51  1  0     0  0
 18 25  2  0     0  0
 51 52  1  0     0  0
  5  7  1  1     0  0
 51 53  2  0     0  0
M  CHG  2  51   1  52  -1
M  END
>  <prID>
551

>  <IDDB>
167913

>  <pIC50_HIV_Integrase>
5.943095149

>  <Q>
-0.347441287

>  <Activity_Integrase>
Inactive_Integrase

NA
NA
NA
NA
$$$$

  Accelrys05311914322D 1   1.00000     0.00000     0

 33 34  0     0  0            999 V2000
    4.5146   -4.8882    0.0000 C   0  0  0  0  0  0           0  0  0
    5.2659   -4.4538    0.0000 C   0  0  0  0  0  0           0  0  0
    6.0227   -4.8860    0.0000 N   0  0  0  0  0  0           0  0  0
    5.2646   -3.5871    0.0000 O   0  0  0  0  0  0           0  0  0
    6.7740   -4.4515    0.0000 C   0  0  2  0  0  0           0  0  0
    7.5267   -4.8837    0.0000 C   0  0  0  0  0  0           0  0  0
    6.7644   -3.5849    0.0000 C   0  0  0  0  0  0           0  0  0
    7.5280   -5.7504    0.0000 O   0  0  0  0  0  0           0  0  0
    8.2733   -4.4484    0.0000 N   0  0  0  0  0  0           0  0  0
    9.0223   -4.8797    0.0000 C   0  0  0  0  0  0           0  0  0
    9.0246   -5.7422    0.0000 C   0  0  0  0  0  0           0  0  0
    9.7736   -6.1694    0.0000 C   0  0  0  0  0  0           0  0  0
    9.7704   -7.0344    0.0000 C   0  0  0  0  0  0           0  0  0
   10.5185   -7.4615    0.0000 C   0  0  0  0  0  0           0  0  0
   11.2661   -7.0303    0.0000 C   0  0  0  0  0  0           0  0  0
   11.2611   -6.1593    0.0000 C   0  0  0  0  0  0           0  0  0
   10.5124   -5.7360    0.0000 C   0  0  0  0  0  0           0  0  0
   12.0063   -5.7256    0.0000 O   0  0  0  0  0  0           0  0  0
   12.0156   -7.4565    0.0000 O   0  0  0  0  0  0           0  0  0
    3.7672   -4.4542    0.0000 C   0  0  0  0  0  0           0  0  0
    7.5074   -3.1433    0.0000 O   0  0  0  0  0  0           0  0  0
    3.0321   -4.8795    0.0000 C   0  0  0  0  0  0           0  0  0
    2.3009   -4.4531    0.0000 C   0  0  0  0  0  0           0  0  0
    1.5704   -4.8777    0.0000 C   0  0  0  0  0  0           0  0  0
    1.5703   -5.7244    0.0000 C   0  0  0  0  0  0           0  0  0
    2.3066   -6.1448    0.0000 C   0  0  0  0  0  0           0  0  0
    3.0341   -5.7220    0.0000 C   0  0  0  0  0  0           0  0  0
    7.4969   -2.3183    0.0000 C   0  0  3  0  0  0           0  0  0
    8.3019   -2.2801    0.0000 C   0  0  0  0  0  0           0  0  0
    6.7106   -2.3108    0.0000 C   0  0  0  0  0  0           0  0  0
    7.5215   -1.5592    0.0000 C   0  0  0  0  0  0           0  0  0
    0.8553   -4.4662    0.0000 O   0  0  0  0  0  0           0  0  0
    0.8568   -6.1386    0.0000 O   0  0  0  0  0  0           0  0  0
 16 17  2  0     0  0
 17 12  1  0     0  0
  6  9  1  0     0  0
 16 18  1  0     0  0
  3  5  1  0     0  0
 15 19  1  0     0  0
  9 10  1  0     0  0
  1 20  2  0     0  0
  2  3  1  0     0  0
  7 21  1  0     0  0
 10 11  1  0     0  0
 20 22  1  0     0  0
  5  6  1  0     0  0
 22 23  2  0     0  0
 11 12  1  0     0  0
 23 24  1  0     0  0
  1  2  1  0     0  0
 24 25  2  0     0  0
 12 13  2  0     0  0
 25 26  1  0     0  0
  5  7  1  1     0  0
 26 27  2  0     0  0
 27 22  1  0     0  0
 13 14  1  0     0  0
 21 28  1  0     0  0
  2  4  2  0     0  0
 28 29  1  0     0  0
 14 15  2  0     0  0
 28 30  1  0     0  0
  6  8  2  0     0  0
 28 31  1  0     0  0
 15 16  1  0     0  0
 24 32  1  0     0  0
 25 33  1  0     0  0
M  END
>  <prID>
552

>  <IDDB>
167914

>  <pIC50_HIV_Integrase>
6.354577731

>  <Q>
-4.856812778

>  <Activity_Integrase>
Active_Integrase

NA
NA
NA
NA
$$$$

  Accelrys05311914332D 1   1.00000     0.00000     0

 32 33  0     0  0            999 V2000
    4.5146   -4.8882    0.0000 C   0  0  0  0  0  0           0  0  0
    5.2659   -4.4538    0.0000 C   0  0  0  0  0  0           0  0  0
    6.0227   -4.8860    0.0000 N   0  0  0  0  0  0           0  0  0
    5.2646   -3.5871    0.0000 O   0  0  0  0  0  0           0  0  0
    6.7740   -4.4515    0.0000 C   0  0  2  0  0  0           0  0  0
    7.5267   -4.8837    0.0000 C   0  0  0  0  0  0           0  0  0
    6.7644   -3.5849    0.0000 C   0  0  0  0  0  0           0  0  0
    7.5280   -5.7504    0.0000 O   0  0  0  0  0  0           0  0  0
    8.2733   -4.4484    0.0000 N   0  0  0  0  0  0           0  0  0
    9.0223   -4.8797    0.0000 C   0  0  0  0  0  0           0  0  0
    9.0246   -5.7422    0.0000 C   0  0  0  0  0  0           0  0  0
    9.7736   -6.1694    0.0000 C   0  0  0  0  0  0           0  0  0
    9.7704   -7.0344    0.0000 C   0  0  0  0  0  0           0  0  0
   10.5185   -7.4615    0.0000 C   0  0  0  0  0  0           0  0  0
   11.2661   -7.0303    0.0000 C   0  0  0  0  0  0           0  0  0
   11.2611   -6.1593    0.0000 C   0  0  0  0  0  0           0  0  0
   10.5124   -5.7360    0.0000 C   0  0  0  0  0  0           0  0  0
   12.0063   -5.7256    0.0000 O   0  0  0  0  0  0           0  0  0
   12.0156   -7.4565    0.0000 O   0  0  0  0  0  0           0  0  0
    7.5074   -3.1433    0.0000 O   0  0  0  0  0  0           0  0  0
    7.4969   -2.3183    0.0000 C   0  0  3  0  0  0           0  0  0
    8.3019   -2.2801    0.0000 C   0  0  0  0  0  0           0  0  0
    6.7106   -2.3108    0.0000 C   0  0  0  0  0  0           0  0  0
    7.5215   -1.5592    0.0000 C   0  0  0  0  0  0           0  0  0
    3.7650   -4.4501    0.0000 C   0  0  0  0  0  0           0  0  0
    3.0142   -4.8839    0.0000 C   0  0  0  0  0  0           0  0  0
    3.0143   -5.7527    0.0000 C   0  0  0  0  0  0           0  0  0
    3.7715   -6.1860    0.0000 C   0  0  0  0  0  0           0  0  0
    4.5192   -5.7497    0.0000 C   0  0  0  0  0  0           0  0  0
    2.2632   -4.4505    0.0000 O   0  0  0  0  0  0           0  0  0
    2.2627   -6.1886    0.0000 O   0  0  0  0  0  0           0  0  0
    3.7751   -7.0583    0.0000 O   0  0  0  0  0  0           0  0  0
 16 17  2  0     0  0
 17 12  1  0     0  0
  6  9  1  0     0  0
 16 18  1  0     0  0
  3  5  1  0     0  0
 15 19  1  0     0  0
  9 10  1  0     0  0
  7 20  1  0     0  0
  2  3  1  0     0  0
 20 21  1  0     0  0
 10 11  1  0     0  0
 21 22  1  0     0  0
  5  6  1  0     0  0
 21 23  1  0     0  0
 11 12  1  0     0  0
 21 24  1  0     0  0
  1  2  1  0     0  0
  1 25  2  0     0  0
 12 13  2  0     0  0
 25 26  1  0     0  0
  5  7  1  1     0  0
 26 27  2  0     0  0
 13 14  1  0     0  0
 27 28  1  0     0  0
  2  4  2  0     0  0
 28 29  2  0     0  0
 29  1  1  0     0  0
 14 15  2  0     0  0
 26 30  1  0     0  0
  6  8  2  0     0  0
 27 31  1  0     0  0
 15 16  1  0     0  0
 28 32  1  0     0  0
M  END
>  <prID>
553

>  <IDDB>
167915

>  <pIC50_HIV_Integrase>
6.818156412

>  <Q>
-5.927043418

>  <Activity_Integrase>
Active_Integrase

NA
NA
NA
NA
$$$$

  Accelrys05311914322D 1   1.00000     0.00000     0

 30 31  0     0  0            999 V2000
    4.5146   -4.8882    0.0000 C   0  0  0  0  0  0           0  0  0
    5.2659   -4.4538    0.0000 C   0  0  0  0  0  0           0  0  0
    6.0227   -4.8860    0.0000 N   0  0  0  0  0  0           0  0  0
    5.2646   -3.5871    0.0000 O   0  0  0  0  0  0           0  0  0
    6.7740   -4.4515    0.0000 C   0  0  2  0  0  0           0  0  0
    7.5267   -4.8837    0.0000 C   0  0  0  0  0  0           0  0  0
    6.7644   -3.5849    0.0000 C   0  0  0  0  0  0           0  0  0
    7.5280   -5.7504    0.0000 O   0  0  0  0  0  0           0  0  0
    8.2733   -4.4484    0.0000 N   0  0  0  0  0  0           0  0  0
    9.0223   -4.8797    0.0000 C   0  0  0  0  0  0           0  0  0
    9.0246   -5.7422    0.0000 C   0  0  0  0  0  0           0  0  0
    9.7736   -6.1694    0.0000 C   0  0  0  0  0  0           0  0  0
    9.7704   -7.0344    0.0000 C   0  0  0  0  0  0           0  0  0
   10.5185   -7.4615    0.0000 C   0  0  0  0  0  0           0  0  0
   11.2661   -7.0303    0.0000 C   0  0  0  0  0  0           0  0  0
   11.2611   -6.1593    0.0000 C   0  0  0  0  0  0           0  0  0
   10.5124   -5.7360    0.0000 C   0  0  0  0  0  0           0  0  0
   12.0063   -5.7256    0.0000 O   0  0  0  0  0  0           0  0  0
   12.0156   -7.4565    0.0000 O   0  0  0  0  0  0           0  0  0
    7.5074   -3.1433    0.0000 O   0  0  0  0  0  0           0  0  0
    3.7627   -4.4548    0.0000 C   0  0  0  0  0  0           0  0  0
    3.0114   -4.8892    0.0000 C   0  0  0  0  0  0           0  0  0
    2.2610   -4.4546    0.0000 C   0  0  0  0  0  0           0  0  0
    1.5102   -4.8884    0.0000 C   0  0  0  0  0  0           0  0  0
    1.5103   -5.7572    0.0000 C   0  0  0  0  0  0           0  0  0
    2.2675   -6.1905    0.0000 C   0  0  0  0  0  0           0  0  0
    3.0152   -5.7542    0.0000 C   0  0  0  0  0  0           0  0  0
    2.2711   -7.0628    0.0000 O   0  0  0  0  0  0           0  0  0
    0.7592   -4.4550    0.0000 O   0  0  0  0  0  0           0  0  0
    0.7587   -6.1931    0.0000 O   0  0  0  0  0  0           0  0  0
  6  8  2  0     0  0
 15 16  1  0     0  0
 16 17  2  0     0  0
 17 12  1  0     0  0
  6  9  1  0     0  0
 16 18  1  0     0  0
  3  5  1  0     0  0
 15 19  1  0     0  0
  9 10  1  0     0  0
  7 20  1  0     0  0
  2  3  1  0     0  0
  1 21  2  0     0  0
 10 11  1  0     0  0
 21 22  1  0     0  0
  5  6  1  0     0  0
 22 23  2  0     0  0
 11 12  1  0     0  0
 23 24  1  0     0  0
  1  2  1  0     0  0
 24 25  2  0     0  0
 12 13  2  0     0  0
 25 26  1  0     0  0
  5  7  1  1     0  0
 26 27  2  0     0  0
 27 22  1  0     0  0
 13 14  1  0     0  0
 26 28  1  0     0  0
  2  4  2  0     0  0
 24 29  1  0     0  0
 14 15  2  0     0  0
 25 30  1  0     0  0
M  END
>  <prID>
554

>  <IDDB>
167917

>  <pIC50_HIV_Integrase>
6.350665141

>  <Q>
-5.525576351

>  <Activity_Integrase>
Active_Integrase

NA
NA
NA
NA
$$$$

  Accelrys05311914322D 1   1.00000     0.00000     0

 52 56  0     0  0            999 V2000
    4.5146   -4.8882    0.0000 C   0  0  0  0  0  0           0  0  0
    5.2659   -4.4538    0.0000 C   0  0  0  0  0  0           0  0  0
    6.0227   -4.8860    0.0000 N   0  0  0  0  0  0           0  0  0
    5.2646   -3.5871    0.0000 O   0  0  0  0  0  0           0  0  0
    6.7740   -4.4515    0.0000 C   0  0  2  0  0  0           0  0  0
    7.5267   -4.8837    0.0000 C   0  0  0  0  0  0           0  0  0
    6.7644   -3.5849    0.0000 C   0  0  0  0  0  0           0  0  0
    7.5280   -5.7504    0.0000 O   0  0  0  0  0  0           0  0  0
    8.2733   -4.4484    0.0000 N   0  0  0  0  0  0           0  0  0
    9.0223   -4.8797    0.0000 C   0  0  0  0  0  0           0  0  0
    9.0246   -5.7422    0.0000 C   0  0  0  0  0  0           0  0  0
    9.7736   -6.1694    0.0000 C   0  0  0  0  0  0           0  0  0
    9.7704   -7.0344    0.0000 C   0  0  0  0  0  0           0  0  0
   10.5185   -7.4615    0.0000 C   0  0  0  0  0  0           0  0  0
   11.2661   -7.0303    0.0000 C   0  0  0  0  0  0           0  0  0
   11.2611   -6.1593    0.0000 C   0  0  0  0  0  0           0  0  0
   10.5124   -5.7360    0.0000 C   0  0  0  0  0  0           0  0  0
   12.0063   -5.7256    0.0000 O   0  0  0  0  0  0           0  0  0
   12.0156   -7.4565    0.0000 O   0  0  0  0  0  0           0  0  0
    7.5102   -3.1432    0.0000 C   0  0  0  0  0  0           0  0  0
    7.5005   -2.2765    0.0000 C   0  0  0  0  0  0           0  0  0
    8.2046   -1.9057    0.0000 O   0  0  0  0  0  0           0  0  0
    6.7452   -1.8515    0.0000 N   0  0  0  0  0  0           0  0  0
    6.7355   -0.9849    0.0000 C   0  0  0  0  0  0           0  0  0
    5.9802   -0.5599    0.0000 C   0  0  3  0  0  0           0  0  0
    5.9705    0.3068    0.0000 C   0  0  0  0  0  0           0  0  0
    5.2344   -1.0016    0.0000 C   0  0  0  0  0  0           0  0  0
    6.9943   -0.4464    0.0000 C   0  0  0  0  0  0           0  0  0
    6.7172    0.7460    0.0000 C   0  0  0  0  0  0           0  0  0
    6.7079    1.6118    0.0000 C   0  0  0  0  0  0           0  0  0
    5.9520    2.0377    0.0000 C   0  0  0  0  0  0           0  0  0
    5.2038    1.5913    0.0000 C   0  0  0  0  0  0           0  0  0
    5.2167    0.7269    0.0000 C   0  0  0  0  0  0           0  0  0
    7.7266   -0.9007    0.0000 C   0  0  0  0  0  0           0  0  0
    8.4864   -0.4922    0.0000 C   0  0  0  0  0  0           0  0  0
    8.5127    0.3718    0.0000 C   0  0  0  0  0  0           0  0  0
    7.7729    0.8257    0.0000 C   0  0  0  0  0  0           0  0  0
    7.0161    0.4146    0.0000 C   0  0  0  0  0  0           0  0  0
    4.4815   -0.5733    0.0000 C   0  0  0  0  0  0           0  0  0
    3.7363   -1.0142    0.0000 C   0  0  0  0  0  0           0  0  0
    3.7454   -1.8818    0.0000 C   0  0  0  0  0  0           0  0  0
    4.5061   -2.3066    0.0000 C   0  0  0  0  0  0           0  0  0
    5.2482   -1.8632    0.0000 C   0  0  0  0  0  0           0  0  0
    3.7617   -4.4565    0.0000 C   0  0  0  0  0  0           0  0  0
    3.0114   -4.8927    0.0000 C   0  0  0  0  0  0           0  0  0
    2.2593   -4.4595    0.0000 C   0  0  0  0  0  0           0  0  0
    1.5095   -4.8949    0.0000 C   0  0  0  0  0  0           0  0  0
    1.5117   -5.7638    0.0000 C   0  0  0  0  0  0           0  0  0
    2.2698   -6.1953    0.0000 C   0  0  0  0  0  0           0  0  0
    3.0165   -5.7573    0.0000 C   0  0  0  0  0  0           0  0  0
    0.7575   -4.4633    0.0000 O   0  0  0  0  0  0           0  0  0
    0.7611   -6.2014    0.0000 O   0  0  0  0  0  0           0  0  0
 25 26  1  0     0  0
  5  7  1  1     0  0
 25 27  1  0     0  0
 13 14  1  0     0  0
 25 28  1  0     0  0
  2  4  2  0     0  0
 26 29  2  0     0  0
 14 15  2  0     0  0
 29 30  1  0     0  0
  6  8  2  0     0  0
 30 31  2  0     0  0
 15 16  1  0     0  0
 31 32  1  0     0  0
 32 33  2  0     0  0
 33 26  1  0     0  0
 16 17  2  0     0  0
 28 34  2  0     0  0
 17 12  1  0     0  0
 34 35  1  0     0  0
  6  9  1  0     0  0
 35 36  2  0     0  0
 16 18  1  0     0  0
 36 37  1  0     0  0
  3  5  1  0     0  0
 37 38  2  0     0  0
 38 28  1  0     0  0
 15 19  1  0     0  0
 27 39  2  0     0  0
  9 10  1  0     0  0
 39 40  1  0     0  0
  7 20  1  0     0  0
 40 41  2  0     0  0
  2  3  1  0     0  0
 41 42  1  0     0  0
 20 21  1  0     0  0
 42 43  2  0     0  0
 43 27  1  0     0  0
 10 11  1  0     0  0
  1 44  2  0     0  0
 21 22  2  0     0  0
 44 45  1  0     0  0
  5  6  1  0     0  0
 45 46  2  0     0  0
 21 23  1  0     0  0
 46 47  1  0     0  0
 11 12  1  0     0  0
 47 48  2  0     0  0
 23 24  1  0     0  0
 48 49  1  0     0  0
  1  2  1  0     0  0
 49 50  2  0     0  0
 50 45  1  0     0  0
 24 25  1  0     0  0
 47 51  1  0     0  0
 12 13  2  0     0  0
 48 52  1  0     0  0
M  END
>  <prID>
555

>  <IDDB>
167920

>  <pIC50_HIV_Integrase>
5.93930216

>  <Q>
-3.261405737

>  <Activity_Integrase>
Inactive_Integrase

NA
NA
NA
NA
$$$$

  Accelrys05311914322D 1   1.00000     0.00000     0

 50 54  0     0  0            999 V2000
    4.5146   -4.8882    0.0000 C   0  0  0  0  0  0           0  0  0
    5.2659   -4.4538    0.0000 C   0  0  0  0  0  0           0  0  0
    6.0227   -4.8860    0.0000 N   0  0  0  0  0  0           0  0  0
    5.2646   -3.5871    0.0000 O   0  0  0  0  0  0           0  0  0
    6.7740   -4.4515    0.0000 C   0  0  2  0  0  0           0  0  0
    7.5267   -4.8837    0.0000 C   0  0  0  0  0  0           0  0  0
    6.7644   -3.5849    0.0000 C   0  0  0  0  0  0           0  0  0
    7.5280   -5.7504    0.0000 O   0  0  0  0  0  0           0  0  0
    8.2733   -4.4484    0.0000 N   0  0  0  0  0  0           0  0  0
    9.0223   -4.8797    0.0000 C   0  0  0  0  0  0           0  0  0
    9.0246   -5.7422    0.0000 C   0  0  0  0  0  0           0  0  0
    9.7736   -6.1694    0.0000 C   0  0  0  0  0  0           0  0  0
    9.7704   -7.0344    0.0000 C   0  0  0  0  0  0           0  0  0
   10.5185   -7.4615    0.0000 C   0  0  0  0  0  0           0  0  0
   11.2661   -7.0303    0.0000 C   0  0  0  0  0  0           0  0  0
   11.2611   -6.1593    0.0000 C   0  0  0  0  0  0           0  0  0
   10.5124   -5.7360    0.0000 C   0  0  0  0  0  0           0  0  0
   12.0063   -5.7256    0.0000 O   0  0  0  0  0  0           0  0  0
   12.0156   -7.4565    0.0000 O   0  0  0  0  0  0           0  0  0
    7.5102   -3.1432    0.0000 C   0  0  0  0  0  0           0  0  0
    7.5005   -2.2765    0.0000 C   0  0  0  0  0  0           0  0  0
    8.2046   -1.9057    0.0000 O   0  0  0  0  0  0           0  0  0
    6.7452   -1.8515    0.0000 N   0  0  0  0  0  0           0  0  0
    6.7355   -0.9849    0.0000 C   0  0  0  0  0  0           0  0  0
    5.9802   -0.5599    0.0000 C   0  0  3  0  0  0           0  0  0
    5.9705    0.3068    0.0000 C   0  0  0  0  0  0           0  0  0
    5.2344   -1.0016    0.0000 C   0  0  0  0  0  0           0  0  0
    6.9943   -0.4464    0.0000 C   0  0  0  0  0  0           0  0  0
    6.7172    0.7460    0.0000 C   0  0  0  0  0  0           0  0  0
    6.7079    1.6118    0.0000 C   0  0  0  0  0  0           0  0  0
    5.9520    2.0377    0.0000 C   0  0  0  0  0  0           0  0  0
    5.2038    1.5913    0.0000 C   0  0  0  0  0  0           0  0  0
    5.2167    0.7269    0.0000 C   0  0  0  0  0  0           0  0  0
    7.7266   -0.9007    0.0000 C   0  0  0  0  0  0           0  0  0
    8.4864   -0.4922    0.0000 C   0  0  0  0  0  0           0  0  0
    8.5127    0.3718    0.0000 C   0  0  0  0  0  0           0  0  0
    7.7729    0.8257    0.0000 C   0  0  0  0  0  0           0  0  0
    7.0161    0.4146    0.0000 C   0  0  0  0  0  0           0  0  0
    4.4815   -0.5733    0.0000 C   0  0  0  0  0  0           0  0  0
    3.7363   -1.0142    0.0000 C   0  0  0  0  0  0           0  0  0
    3.7454   -1.8818    0.0000 C   0  0  0  0  0  0           0  0  0
    4.5061   -2.3066    0.0000 C   0  0  0  0  0  0           0  0  0
    5.2482   -1.8632    0.0000 C   0  0  0  0  0  0           0  0  0
    3.7650   -4.4501    0.0000 C   0  0  0  0  0  0           0  0  0
    3.0142   -4.8839    0.0000 C   0  0  0  0  0  0           0  0  0
    3.0143   -5.7527    0.0000 C   0  0  0  0  0  0           0  0  0
    3.7715   -6.1860    0.0000 C   0  0  0  0  0  0           0  0  0
    4.5192   -5.7497    0.0000 C   0  0  0  0  0  0           0  0  0
    2.2632   -4.4505    0.0000 O   0  0  0  0  0  0           0  0  0
    2.2627   -6.1886    0.0000 O   0  0  0  0  0  0           0  0  0
 24 25  1  0     0  0
 12 13  2  0     0  0
 25 26  1  0     0  0
  5  7  1  1     0  0
 25 27  1  0     0  0
 13 14  1  0     0  0
 25 28  1  0     0  0
  2  4  2  0     0  0
 26 29  2  0     0  0
 14 15  2  0     0  0
 29 30  1  0     0  0
  6  8  2  0     0  0
 30 31  2  0     0  0
 15 16  1  0     0  0
 31 32  1  0     0  0
 32 33  2  0     0  0
 33 26  1  0     0  0
 16 17  2  0     0  0
 28 34  2  0     0  0
 17 12  1  0     0  0
 34 35  1  0     0  0
  6  9  1  0     0  0
 35 36  2  0     0  0
 16 18  1  0     0  0
 36 37  1  0     0  0
  3  5  1  0     0  0
 37 38  2  0     0  0
 38 28  1  0     0  0
 15 19  1  0     0  0
 27 39  2  0     0  0
  9 10  1  0     0  0
 39 40  1  0     0  0
  7 20  1  0     0  0
 40 41  2  0     0  0
  2  3  1  0     0  0
 41 42  1  0     0  0
 20 21  1  0     0  0
 42 43  2  0     0  0
 43 27  1  0     0  0
 10 11  1  0     0  0
  1 44  2  0     0  0
 21 22  2  0     0  0
 44 45  1  0     0  0
  5  6  1  0     0  0
 45 46  2  0     0  0
 21 23  1  0     0  0
 46 47  1  0     0  0
 11 12  1  0     0  0
 47 48  2  0     0  0
 48  1  1  0     0  0
 23 24  1  0     0  0
 45 49  1  0     0  0
  1  2  1  0     0  0
 46 50  1  0     0  0
M  END
>  <prID>
556

>  <IDDB>
167921

>  <pIC50_HIV_Integrase>
5.887394998

>  <Q>
-3.514972756

>  <Activity_Integrase>
Inactive_Integrase

NA
NA
NA
NA
$$$$

  Accelrys05311914322D 1   1.00000     0.00000     0

 53 57  0     0  0            999 V2000
    4.5146   -4.8882    0.0000 C   0  0  0  0  0  0           0  0  0
    5.2659   -4.4538    0.0000 C   0  0  0  0  0  0           0  0  0
    6.0227   -4.8860    0.0000 N   0  0  0  0  0  0           0  0  0
    5.2646   -3.5871    0.0000 O   0  0  0  0  0  0           0  0  0
    6.7740   -4.4515    0.0000 C   0  0  2  0  0  0           0  0  0
    7.5267   -4.8837    0.0000 C   0  0  0  0  0  0           0  0  0
    6.7644   -3.5849    0.0000 C   0  0  0  0  0  0           0  0  0
    7.5280   -5.7504    0.0000 O   0  0  0  0  0  0           0  0  0
    8.2733   -4.4484    0.0000 N   0  0  0  0  0  0           0  0  0
    9.0223   -4.8797    0.0000 C   0  0  0  0  0  0           0  0  0
    9.0246   -5.7422    0.0000 C   0  0  0  0  0  0           0  0  0
    9.7736   -6.1694    0.0000 C   0  0  0  0  0  0           0  0  0
    9.7704   -7.0344    0.0000 C   0  0  0  0  0  0           0  0  0
   10.5185   -7.4615    0.0000 C   0  0  0  0  0  0           0  0  0
   11.2661   -7.0303    0.0000 C   0  0  0  0  0  0           0  0  0
   11.2611   -6.1593    0.0000 C   0  0  0  0  0  0           0  0  0
   10.5124   -5.7360    0.0000 C   0  0  0  0  0  0           0  0  0
   12.0063   -5.7256    0.0000 O   0  0  0  0  0  0           0  0  0
   12.0156   -7.4565    0.0000 O   0  0  0  0  0  0           0  0  0
    7.5102   -3.1432    0.0000 C   0  0  0  0  0  0           0  0  0
    7.5005   -2.2765    0.0000 C   0  0  0  0  0  0           0  0  0
    8.2046   -1.9057    0.0000 O   0  0  0  0  0  0           0  0  0
    6.7452   -1.8515    0.0000 N   0  0  0  0  0  0           0  0  0
    6.7355   -0.9849    0.0000 C   0  0  0  0  0  0           0  0  0
    5.9802   -0.5599    0.0000 C   0  0  3  0  0  0           0  0  0
    5.9705    0.3068    0.0000 C   0  0  0  0  0  0           0  0  0
    5.2344   -1.0016    0.0000 C   0  0  0  0  0  0           0  0  0
    6.9943   -0.4464    0.0000 C   0  0  0  0  0  0           0  0  0
    6.7172    0.7460    0.0000 C   0  0  0  0  0  0           0  0  0
    6.7079    1.6118    0.0000 C   0  0  0  0  0  0           0  0  0
    5.9520    2.0377    0.0000 C   0  0  0  0  0  0           0  0  0
    5.2038    1.5913    0.0000 C   0  0  0  0  0  0           0  0  0
    5.2167    0.7269    0.0000 C   0  0  0  0  0  0           0  0  0
    7.7266   -0.9007    0.0000 C   0  0  0  0  0  0           0  0  0
    8.4864   -0.4922    0.0000 C   0  0  0  0  0  0           0  0  0
    8.5127    0.3718    0.0000 C   0  0  0  0  0  0           0  0  0
    7.7729    0.8257    0.0000 C   0  0  0  0  0  0           0  0  0
    7.0161    0.4146    0.0000 C   0  0  0  0  0  0           0  0  0
    4.4815   -0.5733    0.0000 C   0  0  0  0  0  0           0  0  0
    3.7363   -1.0142    0.0000 C   0  0  0  0  0  0           0  0  0
    3.7454   -1.8818    0.0000 C   0  0  0  0  0  0           0  0  0
    4.5061   -2.3066    0.0000 C   0  0  0  0  0  0           0  0  0
    5.2482   -1.8632    0.0000 C   0  0  0  0  0  0           0  0  0
    3.7627   -4.4548    0.0000 C   0  0  0  0  0  0           0  0  0
    3.0114   -4.8892    0.0000 C   0  0  0  0  0  0           0  0  0
    2.2610   -4.4546    0.0000 C   0  0  0  0  0  0           0  0  0
    1.5102   -4.8884    0.0000 C   0  0  0  0  0  0           0  0  0
    1.5103   -5.7572    0.0000 C   0  0  0  0  0  0           0  0  0
    2.2675   -6.1905    0.0000 C   0  0  0  0  0  0           0  0  0
    3.0152   -5.7542    0.0000 C   0  0  0  0  0  0           0  0  0
    0.7592   -4.4550    0.0000 N   0  3  0  0  0  0           0  0  0
    0.7590   -3.5879    0.0000 O   0  5  0  0  0  0           0  0  0
    0.0083   -4.8887    0.0000 O   0  0  0  0  0  0           0  0  0
  5  7  1  1     0  0
 25 27  1  0     0  0
 13 14  1  0     0  0
 25 28  1  0     0  0
  2  4  2  0     0  0
 26 29  2  0     0  0
 14 15  2  0     0  0
 29 30  1  0     0  0
  6  8  2  0     0  0
 30 31  2  0     0  0
 15 16  1  0     0  0
 31 32  1  0     0  0
 32 33  2  0     0  0
 33 26  1  0     0  0
 16 17  2  0     0  0
 28 34  2  0     0  0
 17 12  1  0     0  0
 34 35  1  0     0  0
  6  9  1  0     0  0
 35 36  2  0     0  0
 16 18  1  0     0  0
 36 37  1  0     0  0
  3  5  1  0     0  0
 37 38  2  0     0  0
 38 28  1  0     0  0
 15 19  1  0     0  0
 27 39  2  0     0  0
  9 10  1  0     0  0
 39 40  1  0     0  0
  7 20  1  0     0  0
 40 41  2  0     0  0
  2  3  1  0     0  0
 41 42  1  0     0  0
 20 21  1  0     0  0
 42 43  2  0     0  0
 43 27  1  0     0  0
 10 11  1  0     0  0
  1 44  2  0     0  0
 21 22  2  0     0  0
 44 45  1  0     0  0
  5  6  1  0     0  0
 45 46  2  0     0  0
 21 23  1  0     0  0
 46 47  1  0     0  0
 11 12  1  0     0  0
 47 48  2  0     0  0
 23 24  1  0     0  0
 48 49  1  0     0  0
  1  2  1  0     0  0
 49 50  2  0     0  0
 50 45  1  0     0  0
 24 25  1  0     0  0
 47 51  1  0     0  0
 12 13  2  0     0  0
 51 52  1  0     0  0
 25 26  1  0     0  0
 51 53  2  0     0  0
M  CHG  2  51   1  52  -1
M  END
>  <prID>
557

>  <IDDB>
167922

>  <pIC50_HIV_Integrase>
5.403402904

>  <Q>
-1.796676665

>  <Activity_Integrase>
Inactive_Integrase

NA
NA
NA
NA
$$$$

  Accelrys05311914322D 1   1.00000     0.00000     0

 49 54  0     0  0            999 V2000
    3.9021   -5.2549    0.0000 C   0  0  0  0  0  0           0  0  0
    4.6326   -4.8329    0.0000 C   0  0  0  0  0  0           0  0  0
    5.3686   -5.2527    0.0000 N   0  0  0  0  0  0           0  0  0
    4.6146   -4.1913    0.0000 O   0  0  0  0  0  0           0  0  0
    6.1032   -4.8307    0.0000 C   0  0  2  0  0  0           0  0  0
    6.8350   -5.2504    0.0000 C   0  0  0  0  0  0           0  0  0
    6.0936   -3.9849    0.0000 C   0  0  0  0  0  0           0  0  0
    6.8363   -6.0962    0.0000 O   0  0  0  0  0  0           0  0  0
    7.5650   -4.8276    0.0000 N   0  0  0  0  0  0           0  0  0
    8.2931   -5.2464    0.0000 C   0  0  0  0  0  0           0  0  0
    6.8033   -3.5643    0.0000 C   0  0  0  0  0  0           0  0  0
    7.5581   -3.8880    0.0000 C   0  0  0  0  0  0           0  0  0
    8.1032   -3.2686    0.0000 N   0  0  0  0  0  0           0  0  0
    7.6825   -2.5589    0.0000 C   0  0  0  0  0  0           0  0  0
    6.8776   -2.7397    0.0000 N   0  0  3  0  0  0           0  0  0
    6.2573   -2.1958    0.0000 C   0  0  3  0  0  0           0  0  0
    6.8931   -1.7533    0.0000 C   0  0  0  0  0  0           0  0  0
    5.7390   -1.5374    0.0000 C   0  0  0  0  0  0           0  0  0
    5.4547   -2.5630    0.0000 C   0  0  0  0  0  0           0  0  0
    7.5907   -2.0854    0.0000 C   0  0  0  0  0  0           0  0  0
    8.2262   -1.6436    0.0000 C   0  0  0  0  0  0           0  0  0
    8.1612   -0.8708    0.0000 C   0  0  0  0  0  0           0  0  0
    7.4554   -0.5420    0.0000 C   0  0  0  0  0  0           0  0  0
    6.8229   -0.9858    0.0000 C   0  0  0  0  0  0           0  0  0
    6.0531   -0.7637    0.0000 C   0  0  0  0  0  0           0  0  0
    5.5356   -0.1057    0.0000 C   0  0  0  0  0  0           0  0  0
    4.7053   -0.2250    0.0000 C   0  0  0  0  0  0           0  0  0
    4.3951   -1.0081    0.0000 C   0  0  0  0  0  0           0  0  0
    4.9145   -1.6628    0.0000 C   0  0  0  0  0  0           0  0  0
    4.7370   -2.0482    0.0000 C   0  0  0  0  0  0           0  0  0
    3.9350   -2.4147    0.0000 C   0  0  0  0  0  0           0  0  0
    3.8511   -3.2943    0.0000 C   0  0  0  0  0  0           0  0  0
    4.5758   -3.8060    0.0000 C   0  0  0  0  0  0           0  0  0
    5.3748   -3.4367    0.0000 C   0  0  0  0  0  0           0  0  0
    9.0069   -4.8327    0.0000 C   0  0  0  0  0  0           0  0  0
    9.7220   -5.2441    0.0000 C   0  0  0  0  0  0           0  0  0
    9.7194   -6.0678    0.0000 C   0  0  0  0  0  0           0  0  0
   10.4337   -6.4790    0.0000 C   0  0  0  0  0  0           0  0  0
   11.1485   -6.0653    0.0000 C   0  0  0  0  0  0           0  0  0
   11.1445   -5.2360    0.0000 C   0  0  0  0  0  0           0  0  0
   10.4296   -4.8285    0.0000 C   0  0  0  0  0  0           0  0  0
   11.8568   -4.8199    0.0000 O   0  0  0  0  0  0           0  0  0
   11.8642   -6.4757    0.0000 O   0  0  0  0  0  0           0  0  0
    3.1736   -4.8287    0.0000 C   0  0  0  0  0  0           0  0  0
    2.4437   -5.2500    0.0000 C   0  0  0  0  0  0           0  0  0
    2.4434   -6.0945    0.0000 C   0  0  0  0  0  0           0  0  0
    3.1792   -6.5160    0.0000 C   0  0  0  0  0  0           0  0  0
    3.9062   -6.0923    0.0000 C   0  0  0  0  0  0           0  0  0
    1.7295   -6.5081    0.0000 O   0  0  0  0  0  0           0  0  0
 24 17  1  0     0  0
  1  2  1  0     0  0
 18 25  2  0     0  0
  5  7  1  1     0  0
 25 26  1  0     0  0
  2  4  2  0     0  0
 26 27  2  0     0  0
 12 13  1  0     0  0
 27 28  1  0     0  0
 13 14  2  0     0  0
 28 29  2  0     0  0
 29 18  1  0     0  0
 14 15  1  0     0  0
 19 30  2  0     0  0
 15 11  1  0     0  0
 30 31  1  0     0  0
  6  8  2  0     0  0
 31 32  2  0     0  0
 15 16  1  0     0  0
 32 33  1  0     0  0
 33 34  2  0     0  0
 34 19  1  0     0  0
 16 17  1  0     0  0
 10 35  1  0     0  0
  6  9  1  0     0  0
 35 36  1  0     0  0
 16 18  1  0     0  0
 36 37  2  0     0  0
  3  5  1  0     0  0
 37 38  1  0     0  0
 16 19  1  0     0  0
 38 39  2  0     0  0
  9 10  1  0     0  0
 39 40  1  0     0  0
 17 20  2  0     0  0
 40 41  2  0     0  0
 41 36  1  0     0  0
  2  3  1  0     0  0
 40 42  1  0     0  0
 20 21  1  0     0  0
 39 43  1  0     0  0
  7 11  1  0     0  0
  1 44  2  0     0  0
 21 22  2  0     0  0
 44 45  1  0     0  0
 11 12  2  0     0  0
 45 46  2  0     0  0
 22 23  1  0     0  0
 46 47  1  0     0  0
  5  6  1  0     0  0
 47 48  2  0     0  0
 48  1  1  0     0  0
 23 24  2  0     0  0
 46 49  1  0     0  0
M  END
>  <prID>
558

>  <IDDB>
167924

>  <pIC50_HIV_Integrase>
5.48148606

>  <Q>
-1.251696682

>  <Activity_Integrase>
Inactive_Integrase

NA
NA
NA
NA
$$$$

  Accelrys05311914322D 1   1.00000     0.00000     0

 37 38  0     0  0            999 V2000
    3.9105   -4.0341    0.0000 C   0  0  0  0  0  0           0  0  0
    4.6368   -3.6121    0.0000 C   0  0  0  0  0  0           0  0  0
    5.3644   -4.0318    0.0000 N   0  0  0  0  0  0           0  0  0
    4.6355   -2.7746    0.0000 O   0  0  0  0  0  0           0  0  0
    6.0907   -3.6099    0.0000 C   0  0  2  0  0  0           0  0  0
    6.8183   -4.0296    0.0000 C   0  0  0  0  0  0           0  0  0
    6.0811   -2.7724    0.0000 C   0  0  0  0  0  0           0  0  0
    6.8196   -4.8671    0.0000 O   0  0  0  0  0  0           0  0  0
    7.5400   -3.6067    0.0000 N   0  0  0  0  0  0           0  0  0
    8.2639   -4.0256    0.0000 C   0  0  0  0  0  0           0  0  0
    8.2663   -4.8589    0.0000 C   0  0  0  0  0  0           0  0  0
    8.9902   -5.2694    0.0000 C   0  0  0  0  0  0           0  0  0
    8.9870   -6.1053    0.0000 C   0  0  0  0  0  0           0  0  0
    9.7060   -6.5198    0.0000 C   0  0  0  0  0  0           0  0  0
   10.4286   -6.1011    0.0000 C   0  0  0  0  0  0           0  0  0
   10.4236   -5.2593    0.0000 C   0  0  0  0  0  0           0  0  0
    9.6999   -4.8527    0.0000 C   0  0  0  0  0  0           0  0  0
   11.1438   -4.8423    0.0000 O   0  0  0  0  0  0           0  0  0
   11.1531   -6.5148    0.0000 O   0  0  0  0  0  0           0  0  0
    6.8032   -2.3516    0.0000 C   0  0  0  0  0  0           0  0  0
    6.7936   -1.5183    0.0000 C   0  0  0  0  0  0           0  0  0
    7.5074   -1.0851    0.0000 N   0  0  0  0  0  0           0  0  0
    8.2117   -1.4819    0.0000 C   0  0  0  0  0  0           0  0  0
    8.9070   -1.0622    0.0000 O   0  0  0  0  0  0           0  0  0
    8.2249   -2.2902    0.0000 O   0  0  0  0  0  0           0  0  0
    9.6242   -1.4627    0.0000 C   0  0  3  0  0  0           0  0  0
   10.3274   -1.0382    0.0000 C   0  0  0  0  0  0           0  0  0
    9.6381   -2.2834    0.0000 C   0  0  0  0  0  0           0  0  0
   10.3598   -1.8861    0.0000 C   0  0  0  0  0  0           0  0  0
    3.1840   -3.6115    0.0000 C   0  0  0  0  0  0           0  0  0
    2.4582   -4.0328    0.0000 C   0  0  0  0  0  0           0  0  0
    2.4600   -4.8737    0.0000 C   0  0  0  0  0  0           0  0  0
    3.1937   -5.2915    0.0000 C   0  0  0  0  0  0           0  0  0
    3.9165   -4.8679    0.0000 C   0  0  0  0  0  0           0  0  0
    1.7428   -3.6219    0.0000 O   0  0  0  0  0  0           0  0  0
    1.7472   -5.2890    0.0000 O   0  0  0  0  0  0           0  0  0
    3.1989   -6.1165    0.0000 O   0  0  0  0  0  0           0  0  0
  3  5  1  0     0  0
 15 19  1  0     0  0
  9 10  1  0     0  0
  7 20  1  0     0  0
  2  3  1  0     0  0
 20 21  1  0     0  0
 10 11  1  0     0  0
 21 22  1  0     0  0
  5  6  1  0     0  0
 22 23  1  0     0  0
 11 12  1  0     0  0
 23 24  1  0     0  0
  1  2  1  0     0  0
 23 25  2  0     0  0
 12 13  2  0     0  0
 24 26  1  0     0  0
  5  7  1  1     0  0
 26 27  1  0     0  0
 13 14  1  0     0  0
 26 28  1  0     0  0
  2  4  2  0     0  0
 26 29  1  0     0  0
 14 15  2  0     0  0
  1 30  2  0     0  0
  6  8  2  0     0  0
 30 31  1  0     0  0
 15 16  1  0     0  0
 31 32  2  0     0  0
 32 33  1  0     0  0
 16 17  2  0     0  0
 33 34  2  0     0  0
 34  1  1  0     0  0
 17 12  1  0     0  0
 31 35  1  0     0  0
  6  9  1  0     0  0
 32 36  1  0     0  0
 16 18  1  0     0  0
 33 37  1  0     0  0
M  END
>  <prID>
559

>  <IDDB>
167926

>  <pIC50_HIV_Integrase>
6.427128398

>  <Q>
-7.35634793

>  <Activity_Integrase>
Active_Integrase

NA
NA
NA
NA
$$$$

  Accelrys05311914322D 1   1.00000     0.00000     0

 39 42  0     0  0            999 V2000
    2.8938   -5.0049    0.0000 C   0  0  0  0  0  0           0  0  0
    3.6201   -4.5871    0.0000 C   0  0  0  0  0  0           0  0  0
    4.3436   -5.0027    0.0000 N   0  0  0  0  0  0           0  0  0
    3.6188   -3.7538    0.0000 O   0  0  0  0  0  0           0  0  0
    5.0657   -4.5849    0.0000 C   0  0  2  0  0  0           0  0  0
    5.7892   -5.0004    0.0000 C   0  0  0  0  0  0           0  0  0
    5.0561   -3.7515    0.0000 C   0  0  0  0  0  0           0  0  0
    5.7905   -5.8337    0.0000 O   0  0  0  0  0  0           0  0  0
    5.7741   -3.3308    0.0000 C   0  0  0  0  0  0           0  0  0
    5.7645   -2.5017    0.0000 C   0  0  0  0  0  0           0  0  0
    6.4741   -2.0726    0.0000 C   0  0  0  0  0  0           0  0  0
    1.4493   -5.8375    0.0000 C   0  0  0  0  0  0           0  0  0
    2.1736   -6.2578    0.0000 C   0  0  0  0  0  0           0  0  0
    2.8999   -5.8377    0.0000 C   0  0  0  0  0  0           0  0  0
    1.4514   -5.0014    0.0000 C   0  0  0  0  0  0           0  0  0
    2.1681   -4.5898    0.0000 C   0  0  0  0  0  0           0  0  0
    2.1685   -3.7665    0.0000 C   0  0  0  0  0  0           0  0  0
    1.4539   -3.3484    0.0000 C   0  0  0  0  0  0           0  0  0
    0.7372   -3.7641    0.0000 C   0  0  0  0  0  0           0  0  0
    0.7351   -4.5937    0.0000 C   0  0  0  0  0  0           0  0  0
    2.1730   -7.0787    0.0000 O   0  0  0  0  0  0           0  0  0
    0.0252   -5.0027    0.0000 O   0  0  0  0  0  0           0  0  0
    6.4560   -1.2519    0.0000 N   0  0  0  0  0  0           0  0  0
    7.1571   -0.8238    0.0000 C   0  0  0  0  0  0           0  0  0
    6.4991   -4.5914    0.0000 N   0  0  0  0  0  0           0  0  0
    7.2098   -4.9990    0.0000 O   0  0  0  0  0  0           0  0  0
    7.1390   -0.0032    0.0000 O   0  0  0  0  0  0           0  0  0
    7.8763   -1.2206    0.0000 C   0  0  0  0  0  0           0  0  0
    7.8903   -2.0385    0.0000 C   0  0  0  0  0  0           0  0  0
    8.6128   -2.4310    0.0000 C   0  0  0  0  0  0           0  0  0
    9.3141   -2.0065    0.0000 C   0  0  0  0  0  0           0  0  0
    8.6309   -3.2516    0.0000 O   0  0  0  0  0  0           0  0  0
    8.5751   -0.7892    0.0000 C   0  0  0  0  0  0           0  0  0
    9.2931   -1.1825    0.0000 C   0  0  0  0  0  0           0  0  0
    9.9905   -0.7575    0.0000 C   0  0  0  0  0  0           0  0  0
    9.9712    0.0606    0.0000 C   0  0  0  0  0  0           0  0  0
    9.2486    0.4519    0.0000 C   0  0  0  0  0  0           0  0  0
    8.5542    0.0246    0.0000 C   0  0  0  0  0  0           0  0  0
   10.7145   -1.1530    0.0000 O   0  0  0  0  0  0           0  0  0
 17 18  2  0     0  0
 18 19  1  0     0  0
 19 20  2  0     0  0
  2  3  1  0     0  0
 13 21  1  0     0  0
 10 11  1  0     0  0
 20 22  1  0     0  0
  1 16  1  0     0  0
 11 23  1  0     0  0
  5  6  1  0     0  0
 23 24  1  0     0  0
  1  2  1  0     0  0
  6 25  1  0     0  0
  5  7  1  1     0  0
 25 26  1  0     0  0
  1 14  2  0     0  0
 24 27  2  0     0  0
 15 12  1  0     0  0
 24 28  1  0     0  0
 12 13  2  0     0  0
 28 29  2  0     0  0
 13 14  1  0     0  0
 29 30  1  0     0  0
 30 31  2  0     0  0
 33 28  1  0     0  0
 15 16  2  0     0  0
 34 31  1  0     0  0
  2  4  2  0     0  0
 30 32  1  0     0  0
  6  8  2  0     0  0
 33 34  1  0     0  0
  7  9  1  0     0  0
 34 35  2  0     0  0
  3  5  1  0     0  0
 35 36  1  0     0  0
  9 10  1  0     0  0
 36 37  2  0     0  0
 15 20  1  0     0  0
 37 38  1  0     0  0
 38 33  2  0     0  0
 16 17  1  0     0  0
 35 39  1  0     0  0
M  END
>  <prID>
560

>  <IDDB>
167928

>  <pIC50_HIV_Integrase>
5.27572413

>  <Q>
-5.317828251

>  <Activity_Integrase>
Inactive_Integrase

NA
NA
NA
NA
$$$$

  Accelrys05311914332D 1   1.00000     0.00000     0

 37 40  0     0  0            999 V2000
    2.8938   -5.0049    0.0000 C   0  0  0  0  0  0           0  0  0
    3.6201   -4.5871    0.0000 C   0  0  0  0  0  0           0  0  0
    4.3436   -5.0027    0.0000 N   0  0  0  0  0  0           0  0  0
    3.6188   -3.7538    0.0000 O   0  0  0  0  0  0           0  0  0
    5.0657   -4.5849    0.0000 C   0  0  2  0  0  0           0  0  0
    5.7892   -5.0004    0.0000 C   0  0  0  0  0  0           0  0  0
    5.0561   -3.7515    0.0000 C   0  0  0  0  0  0           0  0  0
    5.7905   -5.8337    0.0000 O   0  0  0  0  0  0           0  0  0
    5.7741   -3.3308    0.0000 C   0  0  0  0  0  0           0  0  0
    1.4493   -5.8375    0.0000 C   0  0  0  0  0  0           0  0  0
    2.1736   -6.2578    0.0000 C   0  0  0  0  0  0           0  0  0
    2.8999   -5.8377    0.0000 C   0  0  0  0  0  0           0  0  0
    1.4514   -5.0014    0.0000 C   0  0  0  0  0  0           0  0  0
    2.1681   -4.5898    0.0000 C   0  0  0  0  0  0           0  0  0
    2.1685   -3.7665    0.0000 C   0  0  0  0  0  0           0  0  0
    1.4539   -3.3484    0.0000 C   0  0  0  0  0  0           0  0  0
    0.7372   -3.7641    0.0000 C   0  0  0  0  0  0           0  0  0
    0.7351   -4.5937    0.0000 C   0  0  0  0  0  0           0  0  0
    2.1730   -7.0787    0.0000 O   0  0  0  0  0  0           0  0  0
    0.0252   -5.0027    0.0000 O   0  0  0  0  0  0           0  0  0
    6.4991   -4.5914    0.0000 N   0  0  0  0  0  0           0  0  0
    6.4961   -3.7435    0.0000 C   0  0  0  0  0  0           0  0  0
    7.2135   -3.3234    0.0000 C   0  0  0  0  0  0           0  0  0
    7.2086   -2.4904    0.0000 C   0  0  0  0  0  0           0  0  0
    6.4801   -2.0792    0.0000 C   0  0  0  0  0  0           0  0  0
    5.7656   -2.5016    0.0000 C   0  0  0  0  0  0           0  0  0
    7.9198   -2.0723    0.0000 O   0  0  0  0  0  0           0  0  0
    7.2132   -5.0045    0.0000 C   0  0  0  0  0  0           0  0  0
    7.9280   -4.5927    0.0000 C   0  0  0  0  0  0           0  0  0
    8.6421   -5.0058    0.0000 C   0  0  0  0  0  0           0  0  0
    8.6382   -5.8302    0.0000 C   0  0  0  0  0  0           0  0  0
    9.3514   -6.2433    0.0000 C   0  0  0  0  0  0           0  0  0
   10.0672   -5.8314    0.0000 C   0  0  0  0  0  0           0  0  0
   10.0653   -5.0021    0.0000 C   0  0  0  0  0  0           0  0  0
    9.3515   -4.5928    0.0000 C   0  0  0  0  0  0           0  0  0
   10.7787   -4.5877    0.0000 O   0  0  0  0  0  0           0  0  0
   10.7819   -6.2436    0.0000 O   0  0  0  0  0  0           0  0  0
 17 18  2  0     0  0
  1 14  1  0     0  0
 11 19  1  0     0  0
  3  5  1  0     0  0
 18 20  1  0     0  0
  2  3  1  0     0  0
  6 21  1  0     0  0
  5  6  1  0     0  0
  9 22  2  0     0  0
  1 12  2  0     0  0
 22 23  1  0     0  0
 13 10  1  0     0  0
 23 24  2  0     0  0
 10 11  2  0     0  0
 24 25  1  0     0  0
 11 12  1  0     0  0
 25 26  2  0     0  0
 26  9  1  0     0  0
 13 14  2  0     0  0
 24 27  1  0     0  0
  1  2  1  0     0  0
 21 28  1  0     0  0
  5  7  1  1     0  0
 28 29  1  0     0  0
  2  4  2  0     0  0
 29 30  1  0     0  0
  6  8  2  0     0  0
 30 31  2  0     0  0
 31 32  1  0     0  0
  7  9  1  0     0  0
 32 33  2  0     0  0
 13 18  1  0     0  0
 33 34  1  0     0  0
 14 15  1  0     0  0
 34 35  2  0     0  0
 35 30  1  0     0  0
 15 16  2  0     0  0
 34 36  1  0     0  0
 16 17  1  0     0  0
 33 37  1  0     0  0
M  END
>  <prID>
561

>  <IDDB>
167929

>  <pIC50_HIV_Integrase>
5.958607315

>  <Q>
-4.187051389

>  <Activity_Integrase>
Inactive_Integrase

NA
NA
NA
NA
$$$$

  Accelrys05311914322D 1   1.00000     0.00000     0

 37 40  0     0  0            999 V2000
    2.8605   -6.0631    0.0000 N   0  0  0  0  0  0           0  0  0
    1.9304   -6.5772    0.0000 C   0  0  0  0  0  0           0  0  0
    1.0348   -6.0291    0.0000 C   0  0  0  0  0  0           0  0  0
    2.8950   -5.0009    0.0000 C   0  0  0  0  0  0           0  0  0
    1.9178   -7.6036    0.0000 C   0  0  0  0  0  0           0  0  0
    0.1266   -6.5074    0.0000 C   0  0  0  0  0  0           0  0  0
    1.0693   -4.9670    0.0000 C   0  0  0  0  0  0           0  0  0
    1.9994   -4.4529    0.0000 C   0  0  0  0  0  0           0  0  0
    0.1031   -7.5517    0.0000 C   0  0  0  0  0  0           0  0  0
    0.9987   -8.0998    0.0000 C   0  0  0  0  0  0           0  0  0
    0.1737   -4.4189    0.0000 O   0  0  0  0  0  0           0  0  0
    2.7045   -8.1651    0.0000 O   0  0  0  0  0  0           0  0  0
    3.6201   -4.5871    0.0000 C   0  0  0  0  0  0           0  0  0
    4.3436   -5.0027    0.0000 N   0  0  0  0  0  0           0  0  0
    3.6188   -3.7538    0.0000 O   0  0  0  0  0  0           0  0  0
    5.0657   -4.5849    0.0000 C   0  0  2  0  0  0           0  0  0
    5.7892   -5.0004    0.0000 C   0  0  0  0  0  0           0  0  0
    5.0561   -3.7515    0.0000 C   0  0  0  0  0  0           0  0  0
    5.7905   -5.8337    0.0000 O   0  0  0  0  0  0           0  0  0
    5.7741   -3.3308    0.0000 C   0  0  0  0  0  0           0  0  0
    6.4991   -4.5914    0.0000 N   0  0  0  0  0  0           0  0  0
    6.4961   -3.7435    0.0000 C   0  0  0  0  0  0           0  0  0
    7.2135   -3.3234    0.0000 C   0  0  0  0  0  0           0  0  0
    7.2086   -2.4904    0.0000 C   0  0  0  0  0  0           0  0  0
    6.4801   -2.0792    0.0000 C   0  0  0  0  0  0           0  0  0
    5.7656   -2.5016    0.0000 C   0  0  0  0  0  0           0  0  0
    7.9198   -2.0723    0.0000 O   0  0  0  0  0  0           0  0  0
    7.2132   -5.0045    0.0000 C   0  0  0  0  0  0           0  0  0
    7.9280   -4.5927    0.0000 C   0  0  0  0  0  0           0  0  0
    8.6421   -5.0058    0.0000 C   0  0  0  0  0  0           0  0  0
    8.6382   -5.8302    0.0000 C   0  0  0  0  0  0           0  0  0
    9.3514   -6.2433    0.0000 C   0  0  0  0  0  0           0  0  0
   10.0672   -5.8314    0.0000 C   0  0  0  0  0  0           0  0  0
   10.0653   -5.0021    0.0000 C   0  0  0  0  0  0           0  0  0
    9.3515   -4.5928    0.0000 C   0  0  0  0  0  0           0  0  0
   10.7787   -4.5877    0.0000 O   0  0  0  0  0  0           0  0  0
   10.7819   -6.2436    0.0000 O   0  0  0  0  0  0           0  0  0
 16 18  1  1     0  0
  7  3  1  0     0  0
 17 19  2  0     0  0
  8  4  1  0     0  0
 18 20  1  0     0  0
 10  5  2  0     0  0
 17 21  1  0     0  0
 12  5  1  0     0  0
 20 22  2  0     0  0
  9  6  2  0     0  0
 22 23  1  0     0  0
  8  7  2  0     0  0
 23 24  2  0     0  0
 11  7  1  0     0  0
 24 25  1  0     0  0
 10  9  1  0     0  0
 25 26  2  0     0  0
 26 20  1  0     0  0
 24 27  1  0     0  0
  4 13  1  0     0  0
 21 28  1  0     0  0
  2  1  1  0     0  0
 28 29  1  0     0  0
 13 14  1  0     0  0
 29 30  1  0     0  0
  4  1  2  0     0  0
 30 31  2  0     0  0
 13 15  2  0     0  0
 31 32  1  0     0  0
  3  2  2  0     0  0
 32 33  2  0     0  0
 14 16  1  0     0  0
 33 34  1  0     0  0
  5  2  1  0     0  0
 34 35  2  0     0  0
 35 30  1  0     0  0
 16 17  1  0     0  0
 34 36  1  0     0  0
  6  3  1  0     0  0
 33 37  1  0     0  0
M  END
>  <prID>
562

>  <IDDB>
167930

>  <pIC50_HIV_Integrase>
5.920818754

>  <Q>
-4.683353777

>  <Activity_Integrase>
Inactive_Integrase

NA
NA
NA
NA
$$$$

  Accelrys05311914322D 1   1.00000     0.00000     0

 39 43  0     0  0            999 V2000
    2.9659   -4.3625    0.0000 C   0  0  0  0  0  0           0  0  0
    2.1309   -4.8442    0.0000 C   0  0  0  0  0  0           0  0  0
    2.9617   -3.3843    0.0000 C   0  0  0  0  0  0           0  0  0
    1.2860   -4.3492    0.0000 C   0  0  0  0  0  0           0  0  0
    2.1212   -5.7903    0.0000 C   0  0  0  0  0  0           0  0  0
    3.7933   -4.8233    0.0000 C   0  0  0  0  0  0           0  0  0
    3.7905   -5.7854    0.0000 C   0  0  0  0  0  0           0  0  0
    2.9534   -6.2707    0.0000 C   0  0  0  0  0  0           0  0  0
    1.2819   -3.3710    0.0000 C   0  0  0  0  0  0           0  0  0
    2.1169   -2.8893    0.0000 C   0  0  0  0  0  0           0  0  0
    2.9597   -7.2453    0.0000 O   0  0  0  0  0  0           0  0  0
    0.4489   -4.8345    0.0000 O   0  0  0  0  0  0           0  0  0
    4.4618   -4.4454    0.0000 C   0  0  0  0  0  0           0  0  0
    5.1269   -4.8277    0.0000 N   0  0  0  0  0  0           0  0  0
    4.4605   -3.6788    0.0000 O   0  0  0  0  0  0           0  0  0
    5.7907   -4.4432    0.0000 C   0  0  2  0  0  0           0  0  0
    6.4600   -4.8254    0.0000 C   0  0  0  0  0  0           0  0  0
    5.7811   -3.6765    0.0000 C   0  0  0  0  0  0           0  0  0
    6.4613   -5.5962    0.0000 O   0  0  0  0  0  0           0  0  0
    6.4449   -3.2891    0.0000 C   0  0  0  0  0  0           0  0  0
    7.1116   -4.4497    0.0000 N   0  0  0  0  0  0           0  0  0
    7.7673   -4.8295    0.0000 C   0  0  0  0  0  0           0  0  0
    8.4280   -4.4510    0.0000 C   0  0  0  0  0  0           0  0  0
    9.0838   -4.8308    0.0000 C   0  0  0  0  0  0           0  0  0
    9.0798   -5.5927    0.0000 C   0  0  0  0  0  0           0  0  0
    9.7389   -5.9725    0.0000 C   0  0  0  0  0  0           0  0  0
   10.3964   -5.5939    0.0000 C   0  0  0  0  0  0           0  0  0
   10.3945   -4.8271    0.0000 C   0  0  0  0  0  0           0  0  0
    9.7390   -4.4511    0.0000 C   0  0  0  0  0  0           0  0  0
   11.0537   -4.4461    0.0000 O   0  0  0  0  0  0           0  0  0
   11.0569   -5.9727    0.0000 O   0  0  0  0  0  0           0  0  0
    7.1422   -3.5946    0.0000 C   0  0  0  0  0  0           0  0  0
    7.6533   -3.0225    0.0000 N   0  0  0  0  0  0           0  0  0
    6.5156   -2.5246    0.0000 C   0  0  0  0  0  0           0  0  0
    7.2641   -2.3609    0.0000 C   0  0  0  0  0  0           0  0  0
    7.4947   -1.6344    0.0000 C   0  0  0  0  0  0           0  0  0
    6.9819   -1.0709    0.0000 C   0  0  0  0  0  0           0  0  0
    6.2311   -1.2350    0.0000 C   0  0  0  0  0  0           0  0  0
    6.0043   -1.9613    0.0000 C   0  0  0  0  0  0           0  0  0
 17 19  2  0     0  0
  9  4  2  0     0  0
 18 20  1  0     0  0
 12  4  1  0     0  0
 17 21  1  0     0  0
  8  5  2  0     0  0
 21 22  1  0     0  0
  7  6  2  0     0  0
 22 23  1  0     0  0
  8  7  1  0     0  0
 23 24  1  0     0  0
 11  8  1  0     0  0
 24 25  2  0     0  0
 10  9  1  0     0  0
 25 26  1  0     0  0
 26 27  2  0     0  0
  6 13  1  0     0  0
 27 28  1  0     0  0
  2  1  2  0     0  0
 28 29  2  0     0  0
 29 24  1  0     0  0
 13 14  1  0     0  0
 28 30  1  0     0  0
  3  1  1  0     0  0
 27 31  1  0     0  0
 20 32  2  0     0  0
 13 15  2  0     0  0
  6  1  1  0     0  0
 32 33  1  0     0  0
 33 35  1  0     0  0
 34 20  1  0     0  0
 14 16  1  0     0  0
  4  2  1  0     0  0
 34 35  2  0     0  0
 16 17  1  0     0  0
 35 36  1  0     0  0
  5  2  1  0     0  0
 36 37  2  0     0  0
 16 18  1  1     0  0
 37 38  1  0     0  0
 10  3  2  0     0  0
 38 39  2  0     0  0
 39 34  1  0     0  0
M  END
>  <prID>
563

>  <IDDB>
167931

>  <pIC50_HIV_Integrase>
6.207608311

>  <Q>
-3.875812463

>  <Activity_Integrase>
Active_Integrase

NA
NA
NA
NA
$$$$

  Accelrys05311914322D 1   1.00000     0.00000     0

 38 41  0     0  0            999 V2000
    3.0044   -4.1851    0.0000 C   0  0  0  0  0  0           0  0  0
    2.1491   -4.6299    0.0000 C   0  0  0  0  0  0           0  0  0
    3.0383   -3.2146    0.0000 C   0  0  0  0  0  0           0  0  0
    1.3302   -4.1009    0.0000 C   0  0  0  0  0  0           0  0  0
    2.0970   -5.5689    0.0000 C   0  0  0  0  0  0           0  0  0
    3.8017   -4.6804    0.0000 C   0  0  0  0  0  0           0  0  0
    3.7592   -5.6380    0.0000 C   0  0  0  0  0  0           0  0  0
    2.9040   -6.0829    0.0000 C   0  0  0  0  0  0           0  0  0
    1.3664   -3.1269    0.0000 C   0  0  0  0  0  0           0  0  0
    2.2193   -2.6855    0.0000 C   0  0  0  0  0  0           0  0  0
    2.8701   -7.0533    0.0000 O   0  0  0  0  0  0           0  0  0
    0.4784   -4.5480    0.0000 O   0  0  0  0  0  0           0  0  0
    4.4659   -4.3038    0.0000 C   0  0  0  0  0  0           0  0  0
    5.1311   -4.6860    0.0000 N   0  0  0  0  0  0           0  0  0
    4.4646   -3.5413    0.0000 O   0  0  0  0  0  0           0  0  0
    5.7907   -4.3015    0.0000 C   0  0  2  0  0  0           0  0  0
    6.4558   -4.6837    0.0000 C   0  0  0  0  0  0           0  0  0
    5.7811   -3.5390    0.0000 C   0  0  0  0  0  0           0  0  0
    6.4571   -5.4462    0.0000 O   0  0  0  0  0  0           0  0  0
    6.4407   -3.1558    0.0000 C   0  0  0  0  0  0           0  0  0
    7.1074   -4.3081    0.0000 N   0  0  0  0  0  0           0  0  0
    7.7590   -4.6879    0.0000 C   0  0  0  0  0  0           0  0  0
    8.4155   -4.3093    0.0000 C   0  0  0  0  0  0           0  0  0
    9.0713   -4.6891    0.0000 C   0  0  0  0  0  0           0  0  0
    9.0673   -5.4469    0.0000 C   0  0  0  0  0  0           0  0  0
    9.7223   -5.8225    0.0000 C   0  0  0  0  0  0           0  0  0
   10.3756   -5.4480    0.0000 C   0  0  0  0  0  0           0  0  0
   10.3737   -4.6854    0.0000 C   0  0  0  0  0  0           0  0  0
    9.7223   -4.3095    0.0000 C   0  0  0  0  0  0           0  0  0
   11.0287   -4.3044    0.0000 O   0  0  0  0  0  0           0  0  0
   11.0319   -5.8227    0.0000 O   0  0  0  0  0  0           0  0  0
    7.1044   -3.5310    0.0000 C   0  0  0  0  0  0           0  0  0
    7.7594   -3.1484    0.0000 C   0  0  0  0  0  0           0  0  0
    7.7544   -2.3821    0.0000 C   0  0  0  0  0  0           0  0  0
    7.0885   -2.0042    0.0000 C   0  0  0  0  0  0           0  0  0
    6.4323   -2.3933    0.0000 C   0  0  0  0  0  0           0  0  0
    7.0802   -1.2501    0.0000 O   0  0  0  0  0  0           0  0  0
    8.4073   -2.0015    0.0000 O   0  0  0  0  0  0           0  0  0
 10  3  2  0     0  0
 17 19  2  0     0  0
  9  4  2  0     0  0
 18 20  1  0     0  0
 12  4  1  0     0  0
 17 21  1  0     0  0
  8  5  2  0     0  0
 21 22  1  0     0  0
  7  6  2  0     0  0
 22 23  1  0     0  0
  8  7  1  0     0  0
 23 24  1  0     0  0
 11  8  1  0     0  0
 24 25  2  0     0  0
 10  9  1  0     0  0
 25 26  1  0     0  0
 26 27  2  0     0  0
  6 13  1  0     0  0
 27 28  1  0     0  0
  2  1  2  0     0  0
 28 29  2  0     0  0
 29 24  1  0     0  0
 13 14  1  0     0  0
 28 30  1  0     0  0
  3  1  1  0     0  0
 27 31  1  0     0  0
 13 15  2  0     0  0
 20 32  2  0     0  0
  6  1  1  0     0  0
 32 33  1  0     0  0
 14 16  1  0     0  0
 33 34  2  0     0  0
  4  2  1  0     0  0
 34 35  1  0     0  0
 16 17  1  0     0  0
 35 36  2  0     0  0
 36 20  1  0     0  0
  5  2  1  0     0  0
 35 37  1  0     0  0
 16 18  1  1     0  0
 34 38  1  0     0  0
M  END
>  <prID>
564

>  <IDDB>
167932

>  <pIC50_HIV_Integrase>
5.744727495

>  <Q>
-5.001827391

>  <Activity_Integrase>
Inactive_Integrase

NA
NA
NA
NA
$$$$

  Accelrys05311914322D 1   1.00000     0.00000     0

 33 35  0     0  0            999 V2000
    3.2881   -5.3837    0.0000 N   0  0  0  0  0  0           0  0  0
    2.4468   -5.8690    0.0000 C   0  0  0  0  0  0           0  0  0
    1.6204   -5.3834    0.0000 C   0  0  0  0  0  0           0  0  0
    3.2988   -4.4127    0.0000 C   0  0  0  0  0  0           0  0  0
    2.4531   -6.8038    0.0000 C   0  0  0  0  0  0           0  0  0
    0.8003   -5.8367    0.0000 C   0  0  0  0  0  0           0  0  0
    1.6353   -4.4124    0.0000 C   0  0  0  0  0  0           0  0  0
    2.4724   -3.9313    0.0000 C   0  0  0  0  0  0           0  0  0
    0.7960   -6.7895    0.0000 C   0  0  0  0  0  0           0  0  0
    1.6224   -7.2752    0.0000 C   0  0  0  0  0  0           0  0  0
    4.1295   -3.9455    0.0000 C   0  0  0  0  0  0           0  0  0
    0.8089   -3.9310    0.0000 O   0  0  0  0  0  0           0  0  0
    3.2901   -7.2754    0.0000 O   0  0  0  0  0  0           0  0  0
    4.7894   -4.3235    0.0000 N   0  0  0  0  0  0           0  0  0
    4.1271   -3.1871    0.0000 O   0  0  0  0  0  0           0  0  0
    5.4490   -3.9432    0.0000 C   0  0  2  0  0  0           0  0  0
    6.1100   -4.3212    0.0000 C   0  0  0  0  0  0           0  0  0
    5.4394   -3.1849    0.0000 C   0  0  0  0  0  0           0  0  0
    6.1113   -5.0837    0.0000 O   0  0  0  0  0  0           0  0  0
    6.0949   -2.8016    0.0000 C   0  0  0  0  0  0           0  0  0
    6.7544   -3.1768    0.0000 O   0  0  0  0  0  0           0  0  0
    6.0865   -2.0433    0.0000 O   0  0  0  0  0  0           0  0  0
    6.7612   -3.9449    0.0000 N   0  0  0  0  0  0           0  0  0
    7.4139   -4.3227    0.0000 C   0  0  0  0  0  0           0  0  0
    8.0651   -3.9422    0.0000 C   0  0  0  0  0  0           0  0  0
    8.7179   -4.3200    0.0000 C   0  0  0  0  0  0           0  0  0
    8.7154   -5.0678    0.0000 C   0  0  0  0  0  0           0  0  0
    9.3673   -5.4455    0.0000 C   0  0  0  0  0  0           0  0  0
   10.0195   -5.0649    0.0000 C   0  0  0  0  0  0           0  0  0
   10.0153   -4.3107    0.0000 C   0  0  0  0  0  0           0  0  0
    9.3628   -3.9367    0.0000 C   0  0  0  0  0  0           0  0  0
   10.6650   -3.9318    0.0000 O   0  0  0  0  0  0           0  0  0
   10.6728   -5.4418    0.0000 O   0  0  0  0  0  0           0  0  0
 14 16  1  0     0  0
  3  2  2  0     0  0
 16 17  1  0     0  0
  5  2  1  0     0  0
 16 18  1  1     0  0
  6  3  1  0     0  0
 17 19  2  0     0  0
  7  3  1  0     0  0
 18 20  1  0     0  0
  8  4  1  0     0  0
 20 21  2  0     0  0
 11  4  1  0     0  0
 22 20  1  0     0  0
 10  5  2  0     0  0
 17 23  1  0     0  0
 13  5  1  0     0  0
 23 24  1  0     0  0
  9  6  2  0     0  0
 24 25  1  0     0  0
  8  7  2  0     0  0
 25 26  1  0     0  0
 12  7  1  0     0  0
 26 27  2  0     0  0
 10  9  1  0     0  0
 27 28  1  0     0  0
 28 29  2  0     0  0
 11 14  1  0     0  0
 29 30  1  0     0  0
  2  1  1  0     0  0
 30 31  2  0     0  0
 31 26  1  0     0  0
 11 15  2  0     0  0
 30 32  1  0     0  0
  4  1  2  0     0  0
 29 33  1  0     0  0
M  END
>  <prID>
565

>  <IDDB>
167935

>  <pIC50_HIV_Integrase>
5.301029996

>  <Q>
-5.512749391

>  <Activity_Integrase>
Inactive_Integrase

NA
NA
NA
NA
$$$$

  Accelrys05311914322D 1   1.00000     0.00000     0

 52 57  0     0  0            999 V2000
    3.2881   -5.3837    0.0000 N   0  0  0  0  0  0           0  0  0
    2.4468   -5.8690    0.0000 C   0  0  0  0  0  0           0  0  0
    1.6204   -5.3834    0.0000 C   0  0  0  0  0  0           0  0  0
    3.2988   -4.4127    0.0000 C   0  0  0  0  0  0           0  0  0
    2.4531   -6.8038    0.0000 C   0  0  0  0  0  0           0  0  0
    0.8003   -5.8367    0.0000 C   0  0  0  0  0  0           0  0  0
    1.6353   -4.4124    0.0000 C   0  0  0  0  0  0           0  0  0
    2.4724   -3.9313    0.0000 C   0  0  0  0  0  0           0  0  0
    0.7960   -6.7895    0.0000 C   0  0  0  0  0  0           0  0  0
    1.6224   -7.2752    0.0000 C   0  0  0  0  0  0           0  0  0
    4.1295   -3.9455    0.0000 C   0  0  0  0  0  0           0  0  0
    0.8089   -3.9310    0.0000 O   0  0  0  0  0  0           0  0  0
    3.2901   -7.2754    0.0000 O   0  0  0  0  0  0           0  0  0
    4.7894   -4.3235    0.0000 N   0  0  0  0  0  0           0  0  0
    4.1271   -3.1871    0.0000 O   0  0  0  0  0  0           0  0  0
    5.4490   -3.9432    0.0000 C   0  0  2  0  0  0           0  0  0
    6.1100   -4.3212    0.0000 C   0  0  0  0  0  0           0  0  0
    5.4394   -3.1849    0.0000 C   0  0  0  0  0  0           0  0  0
    6.1113   -5.0837    0.0000 O   0  0  0  0  0  0           0  0  0
    6.0949   -2.8016    0.0000 C   0  0  0  0  0  0           0  0  0
    6.7544   -3.1768    0.0000 O   0  0  0  0  0  0           0  0  0
    6.0865   -2.0433    0.0000 N   0  0  0  0  0  0           0  0  0
    6.7612   -3.9449    0.0000 N   0  0  0  0  0  0           0  0  0
    7.4139   -4.3227    0.0000 C   0  0  0  0  0  0           0  0  0
    8.0651   -3.9422    0.0000 C   0  0  0  0  0  0           0  0  0
    8.7179   -4.3200    0.0000 C   0  0  0  0  0  0           0  0  0
    8.7154   -5.0678    0.0000 C   0  0  0  0  0  0           0  0  0
    9.3673   -5.4455    0.0000 C   0  0  0  0  0  0           0  0  0
   10.0195   -5.0649    0.0000 C   0  0  0  0  0  0           0  0  0
   10.0153   -4.3107    0.0000 C   0  0  0  0  0  0           0  0  0
    9.3628   -3.9367    0.0000 C   0  0  0  0  0  0           0  0  0
   10.6650   -3.9318    0.0000 O   0  0  0  0  0  0           0  0  0
   10.6728   -5.4418    0.0000 O   0  0  0  0  0  0           0  0  0
    6.1130   -1.3089    0.0000 C   0  0  3  0  0  0           0  0  0
    6.0838   -0.6548    0.0000 C   0  0  0  0  0  0           0  0  0
    5.3064   -1.3121    0.0000 C   0  0  0  0  0  0           0  0  0
    6.8016   -1.3085    0.0000 C   0  0  0  0  0  0           0  0  0
    6.6373   -0.3044    0.0000 C   0  0  0  0  0  0           0  0  0
    6.6084    0.3492    0.0000 C   0  0  0  0  0  0           0  0  0
    6.0268    0.6515    0.0000 C   0  0  0  0  0  0           0  0  0
    5.4732    0.2955    0.0000 C   0  0  0  0  0  0           0  0  0
    5.5049   -0.3568    0.0000 C   0  0  0  0  0  0           0  0  0
    7.1436   -1.9071    0.0000 C   0  0  0  0  0  0           0  0  0
    7.8315   -1.9069    0.0000 C   0  0  0  0  0  0           0  0  0
    8.1761   -1.3098    0.0000 C   0  0  0  0  0  0           0  0  0
    7.8276   -0.7118    0.0000 C   0  0  0  0  0  0           0  0  0
    7.1408   -0.7149    0.0000 C   0  0  0  0  0  0           0  0  0
    4.9059   -0.6148    0.0000 C   0  0  0  0  0  0           0  0  0
    4.1000   -0.6176    0.0000 C   0  0  0  0  0  0           0  0  0
    3.6985   -1.3182    0.0000 C   0  0  0  0  0  0           0  0  0
    4.1089   -2.0176    0.0000 C   0  0  0  0  0  0           0  0  0
    4.9134   -2.0114    0.0000 C   0  0  0  0  0  0           0  0  0
  8  7  2  0     0  0
 25 26  1  0     0  0
 12  7  1  0     0  0
 26 27  2  0     0  0
 10  9  1  0     0  0
 27 28  1  0     0  0
 28 29  2  0     0  0
 11 14  1  0     0  0
 29 30  1  0     0  0
  2  1  1  0     0  0
 30 31  2  0     0  0
 31 26  1  0     0  0
 11 15  2  0     0  0
 30 32  1  0     0  0
  4  1  2  0     0  0
 29 33  1  0     0  0
 14 16  1  0     0  0
 22 34  1  0     0  0
  3  2  2  0     0  0
 34 35  1  0     0  0
 16 17  1  0     0  0
 34 36  1  0     0  0
  5  2  1  0     0  0
 34 37  1  0     0  0
 16 18  1  1     0  0
 35 38  2  0     0  0
  6  3  1  0     0  0
 38 39  1  0     0  0
 17 19  2  0     0  0
 39 40  2  0     0  0
  7  3  1  0     0  0
 40 41  1  0     0  0
 18 20  1  0     0  0
 41 42  2  0     0  0
 42 35  1  0     0  0
  8  4  1  0     0  0
 37 43  2  0     0  0
 20 21  2  0     0  0
 43 44  1  0     0  0
 11  4  1  0     0  0
 44 45  2  0     0  0
 22 20  1  0     0  0
 45 46  1  0     0  0
 10  5  2  0     0  0
 46 47  2  0     0  0
 47 37  1  0     0  0
 17 23  1  0     0  0
 36 48  2  0     0  0
 13  5  1  0     0  0
 48 49  1  0     0  0
 23 24  1  0     0  0
 49 50  2  0     0  0
  9  6  2  0     0  0
 50 51  1  0     0  0
 24 25  1  0     0  0
 51 52  2  0     0  0
 52 36  1  0     0  0
M  END
>  <prID>
566

>  <IDDB>
167936

>  <pIC50_HIV_Integrase>
5.148741651

>  <Q>
-3.618280363

>  <Activity_Integrase>
Inactive_Integrase

NA
NA
NA
NA
$$$$

  Accelrys05311914322D 1   1.00000     0.00000     0

 53 58  0     0  0            999 V2000
    3.1714   -5.6920    0.0000 N   0  0  0  0  0  0           0  0  0
    2.2884   -6.1982    0.0000 C   0  0  0  0  0  0           0  0  0
    1.4245   -5.6917    0.0000 C   0  0  0  0  0  0           0  0  0
    3.1821   -4.6752    0.0000 C   0  0  0  0  0  0           0  0  0
    2.2948   -7.1788    0.0000 C   0  0  0  0  0  0           0  0  0
    0.5670   -6.1658    0.0000 C   0  0  0  0  0  0           0  0  0
    1.4394   -4.6749    0.0000 C   0  0  0  0  0  0           0  0  0
    2.3182   -4.1688    0.0000 C   0  0  0  0  0  0           0  0  0
    0.5585   -7.1645    0.0000 C   0  0  0  0  0  0           0  0  0
    1.4266   -7.6752    0.0000 C   0  0  0  0  0  0           0  0  0
    4.0545   -4.1830    0.0000 C   0  0  0  0  0  0           0  0  0
    0.5755   -4.1685    0.0000 O   0  0  0  0  0  0           0  0  0
    3.1735   -7.6754    0.0000 O   0  0  0  0  0  0           0  0  0
    4.7436   -4.5818    0.0000 N   0  0  0  0  0  0           0  0  0
    4.0521   -3.3913    0.0000 O   0  0  0  0  0  0           0  0  0
    5.4365   -4.1807    0.0000 C   0  0  2  0  0  0           0  0  0
    6.1267   -4.5796    0.0000 C   0  0  0  0  0  0           0  0  0
    5.4269   -3.3890    0.0000 C   0  0  0  0  0  0           0  0  0
    6.1280   -5.3754    0.0000 O   0  0  0  0  0  0           0  0  0
    6.1116   -2.9849    0.0000 C   0  0  0  0  0  0           0  0  0
    6.8112   -4.1824    0.0000 N   0  0  0  0  0  0           0  0  0
    7.4931   -4.5811    0.0000 C   0  0  0  0  0  0           0  0  0
    8.2122   -3.3914    0.0000 C   0  0  0  0  0  0           0  0  0
    8.2098   -4.1724    0.0000 C   0  0  0  0  0  0           0  0  0
    8.8909   -4.5710    0.0000 C   0  0  0  0  0  0           0  0  0
    9.5764   -4.1696    0.0000 C   0  0  0  0  0  0           0  0  0
    9.5722   -3.3820    0.0000 C   0  0  0  0  0  0           0  0  0
    8.8864   -2.9872    0.0000 C   0  0  0  0  0  0           0  0  0
   10.2511   -2.9823    0.0000 O   0  0  0  0  0  0           0  0  0
   10.2588   -4.5673    0.0000 O   0  0  0  0  0  0           0  0  0
    6.1036   -2.1600    0.0000 C   0  0  0  0  0  0           0  0  0
    6.8141   -1.7406    0.0000 O   0  0  0  0  0  0           0  0  0
    5.3852   -1.7544    0.0000 N   0  0  0  0  0  0           0  0  0
    5.3773   -0.9294    0.0000 C   0  0  0  0  0  0           0  0  0
    4.6589   -0.5238    0.0000 C   0  0  3  0  0  0           0  0  0
    4.6509    0.3012    0.0000 C   0  0  0  0  0  0           0  0  0
    3.9484   -0.9431    0.0000 C   0  0  0  0  0  0           0  0  0
    5.3991   -0.2182    0.0000 C   0  0  0  0  0  0           0  0  0
    5.3617    0.7163    0.0000 C   0  0  0  0  0  0           0  0  0
    5.3541    1.5405    0.0000 C   0  0  0  0  0  0           0  0  0
    4.6351    1.9470    0.0000 C   0  0  0  0  0  0           0  0  0
    3.9223    1.5232    0.0000 C   0  0  0  0  0  0           0  0  0
    3.9334    0.7004    0.0000 C   0  0  0  0  0  0           0  0  0
    3.2330   -0.5331    0.0000 C   0  0  0  0  0  0           0  0  0
    2.5230   -0.9517    0.0000 C   0  0  0  0  0  0           0  0  0
    2.5305   -1.7776    0.0000 C   0  0  0  0  0  0           0  0  0
    3.2539   -2.1830    0.0000 C   0  0  0  0  0  0           0  0  0
    3.9609   -1.7620    0.0000 C   0  0  0  0  0  0           0  0  0
    6.0324   -0.7076    0.0000 C   0  0  0  0  0  0           0  0  0
    6.7721   -0.4026    0.0000 C   0  0  0  0  0  0           0  0  0
    6.8781    0.3920    0.0000 C   0  0  0  0  0  0           0  0  0
    6.2385    0.8808    0.0000 C   0  0  0  0  0  0           0  0  0
    5.5013    0.5731    0.0000 C   0  0  0  0  0  0           0  0  0
 25 26  2  0     0  0
 12  7  1  0     0  0
 26 27  1  0     0  0
 10  9  1  0     0  0
 27 28  2  0     0  0
 28 23  1  0     0  0
 27 29  1  0     0  0
 11 14  1  0     0  0
 26 30  1  0     0  0
  2  1  1  0     0  0
 20 31  1  0     0  0
 11 15  2  0     0  0
 31 32  2  0     0  0
  4  1  2  0     0  0
 31 33  1  0     0  0
 14 16  1  0     0  0
 33 34  1  0     0  0
  3  2  2  0     0  0
 34 35  1  0     0  0
 16 17  1  0     0  0
 35 36  1  0     0  0
  5  2  1  0     0  0
 35 37  1  0     0  0
 16 18  1  1     0  0
 35 38  1  0     0  0
  6  3  1  0     0  0
 36 39  2  0     0  0
 17 19  2  0     0  0
 39 40  1  0     0  0
  7  3  1  0     0  0
 40 41  2  0     0  0
 18 20  1  0     0  0
 41 42  1  0     0  0
  8  4  1  0     0  0
 42 43  2  0     0  0
 43 36  1  0     0  0
 17 21  1  0     0  0
 37 44  2  0     0  0
 11  4  1  0     0  0
 44 45  1  0     0  0
 21 22  1  0     0  0
 45 46  2  0     0  0
 22 24  1  0     0  0
 46 47  1  0     0  0
 10  5  2  0     0  0
 47 48  2  0     0  0
 48 37  1  0     0  0
 13  5  1  0     0  0
 38 49  2  0     0  0
 23 24  2  0     0  0
 49 50  1  0     0  0
  9  6  2  0     0  0
 50 51  2  0     0  0
 24 25  1  0     0  0
 51 52  1  0     0  0
  8  7  2  0     0  0
 52 53  2  0     0  0
 53 38  1  0     0  0
M  END
>  <prID>
567

>  <IDDB>
167941

>  <pIC50_HIV_Integrase>
6.460923901

>  <Q>
-3.387668904

>  <Activity_Integrase>
Active_Integrase

NA
NA
NA
NA
$$$$

  Accelrys05311914322D 1   1.00000     0.00000     0

 53 59  0     0  0            999 V2000
    3.1714   -5.6920    0.0000 N   0  0  0  0  0  0           0  0  0
    2.2884   -6.1982    0.0000 C   0  0  0  0  0  0           0  0  0
    1.4245   -5.6917    0.0000 C   0  0  0  0  0  0           0  0  0
    3.1821   -4.6752    0.0000 C   0  0  0  0  0  0           0  0  0
    2.2948   -7.1788    0.0000 C   0  0  0  0  0  0           0  0  0
    0.5670   -6.1658    0.0000 C   0  0  0  0  0  0           0  0  0
    1.4394   -4.6749    0.0000 C   0  0  0  0  0  0           0  0  0
    2.3182   -4.1688    0.0000 C   0  0  0  0  0  0           0  0  0
    0.5585   -7.1645    0.0000 C   0  0  0  0  0  0           0  0  0
    1.4266   -7.6752    0.0000 C   0  0  0  0  0  0           0  0  0
    4.0545   -4.1830    0.0000 C   0  0  0  0  0  0           0  0  0
    0.5755   -4.1685    0.0000 O   0  0  0  0  0  0           0  0  0
    3.1735   -7.6754    0.0000 O   0  0  0  0  0  0           0  0  0
    4.7436   -4.5818    0.0000 N   0  0  0  0  0  0           0  0  0
    4.0563   -3.4996    0.0000 O   0  0  0  0  0  0           0  0  0
    6.1267   -4.5796    0.0000 C   0  0  0  0  0  0           0  0  0
    6.1280   -5.3754    0.0000 O   0  0  0  0  0  0           0  0  0
    6.8112   -4.1824    0.0000 N   0  0  0  0  0  0           0  0  0
    7.4931   -4.5811    0.0000 C   0  0  0  0  0  0           0  0  0
    8.2122   -3.3914    0.0000 C   0  0  0  0  0  0           0  0  0
    8.2098   -4.1724    0.0000 C   0  0  0  0  0  0           0  0  0
    8.8909   -4.5710    0.0000 C   0  0  0  0  0  0           0  0  0
    9.5764   -4.1696    0.0000 C   0  0  0  0  0  0           0  0  0
    9.5722   -3.3820    0.0000 C   0  0  0  0  0  0           0  0  0
    8.8864   -2.9872    0.0000 C   0  0  0  0  0  0           0  0  0
   10.2511   -2.9823    0.0000 O   0  0  0  0  0  0           0  0  0
   10.2588   -4.5673    0.0000 O   0  0  0  0  0  0           0  0  0
    5.4365   -4.1807    0.0000 C   0  0  2  0  0  0           0  0  0
    5.4369   -3.4256    0.0000 C   0  0  0  0  0  0           0  0  0
    6.0975   -2.2993    0.0000 N   0  0  3  0  0  0           0  0  0
    6.8131   -2.0748    0.0000 C   0  0  0  0  0  0           0  0  0
    7.2477   -2.6860    0.0000 N   0  0  0  0  0  0           0  0  0
    6.8007   -3.2883    0.0000 C   0  0  0  0  0  0           0  0  0
    6.0898   -3.0492    0.0000 C   0  0  0  0  0  0           0  0  0
    5.4952   -1.8523    0.0000 C   0  0  3  0  0  0           0  0  0
    5.1188   -1.1864    0.0000 C   0  0  0  0  0  0           0  0  0
    4.7567   -2.0530    0.0000 C   0  0  0  0  0  0           0  0  0
    6.0829   -1.3863    0.0000 C   0  0  0  0  0  0           0  0  0
    5.5101   -0.5313    0.0000 C   0  0  0  0  0  0           0  0  0
    5.1343    0.1342    0.0000 C   0  0  0  0  0  0           0  0  0
    4.3686    0.1415    0.0000 C   0  0  0  0  0  0           0  0  0
    3.9802   -0.5222    0.0000 C   0  0  0  0  0  0           0  0  0
    4.3583   -1.1849    0.0000 C   0  0  0  0  0  0           0  0  0
    6.7780   -1.6635    0.0000 C   0  0  0  0  0  0           0  0  0
    7.3653   -1.1982    0.0000 C   0  0  0  0  0  0           0  0  0
    7.2558   -0.4554    0.0000 C   0  0  0  0  0  0           0  0  0
    6.5539   -0.1803    0.0000 C   0  0  0  0  0  0           0  0  0
    5.9696   -0.6474    0.0000 C   0  0  0  0  0  0           0  0  0
    4.0958   -1.6969    0.0000 C   0  0  0  0  0  0           0  0  0
    3.4587   -2.0913    0.0000 C   0  0  0  0  0  0           0  0  0
    3.4816   -2.8417    0.0000 C   0  0  0  0  0  0           0  0  0
    4.1470   -3.1960    0.0000 C   0  0  0  0  0  0           0  0  0
    4.7814   -2.7996    0.0000 C   0  0  0  0  0  0           0  0  0
 25 20  1  0     0  0
  8  7  2  0     0  0
 24 26  1  0     0  0
 12  7  1  0     0  0
 23 27  1  0     0  0
 10  9  1  0     0  0
 28 29  1  1     0  0
 29 34  1  0     0  0
 11 14  1  0     0  0
  2  1  1  0     0  0
 30 31  1  0     0  0
 11 15  2  0     0  0
 31 32  2  0     0  0
 14 28  1  0     0  0
 32 33  1  0     0  0
  4  1  2  0     0  0
 33 34  2  0     0  0
 34 30  1  0     0  0
 28 16  1  0     0  0
 30 35  1  0     0  0
  3  2  2  0     0  0
 35 36  1  0     0  0
 16 17  2  0     0  0
 35 37  1  0     0  0
  5  2  1  0     0  0
 35 38  1  0     0  0
 16 18  1  0     0  0
 36 39  2  0     0  0
  6  3  1  0     0  0
 39 40  1  0     0  0
 18 19  1  0     0  0
 40 41  2  0     0  0
 19 21  1  0     0  0
 41 42  1  0     0  0
  7  3  1  0     0  0
 42 43  2  0     0  0
 43 36  1  0     0  0
  8  4  1  0     0  0
 38 44  2  0     0  0
 20 21  2  0     0  0
 44 45  1  0     0  0
 11  4  1  0     0  0
 45 46  2  0     0  0
 21 22  1  0     0  0
 46 47  1  0     0  0
 10  5  2  0     0  0
 47 48  2  0     0  0
 48 38  1  0     0  0
 22 23  2  0     0  0
 37 49  2  0     0  0
 13  5  1  0     0  0
 49 50  1  0     0  0
 23 24  1  0     0  0
 50 51  2  0     0  0
  9  6  2  0     0  0
 51 52  1  0     0  0
 24 25  2  0     0  0
 52 53  2  0     0  0
 53 37  1  0     0  0
M  END
>  <prID>
568

>  <IDDB>
167942

>  <pIC50_HIV_Integrase>
6.394694954

>  <Q>
-1.938053373

>  <Activity_Integrase>
Active_Integrase

NA
NA
NA
NA
$$$$

  Accelrys05311914322D 1   1.00000     0.00000     0

 54 60  0     0  0            999 V2000
    3.1714   -5.6920    0.0000 N   0  0  0  0  0  0           0  0  0
    2.2884   -6.1982    0.0000 C   0  0  0  0  0  0           0  0  0
    1.4245   -5.6917    0.0000 C   0  0  0  0  0  0           0  0  0
    3.1821   -4.6752    0.0000 C   0  0  0  0  0  0           0  0  0
    2.2948   -7.1788    0.0000 C   0  0  0  0  0  0           0  0  0
    0.5670   -6.1658    0.0000 C   0  0  0  0  0  0           0  0  0
    1.4394   -4.6749    0.0000 C   0  0  0  0  0  0           0  0  0
    2.3182   -4.1688    0.0000 C   0  0  0  0  0  0           0  0  0
    0.5585   -7.1645    0.0000 C   0  0  0  0  0  0           0  0  0
    1.4266   -7.6752    0.0000 C   0  0  0  0  0  0           0  0  0
    4.0545   -4.1830    0.0000 C   0  0  0  0  0  0           0  0  0
    0.5755   -4.1685    0.0000 O   0  0  0  0  0  0           0  0  0
    3.1735   -7.6754    0.0000 O   0  0  0  0  0  0           0  0  0
    4.7436   -4.5818    0.0000 N   0  0  0  0  0  0           0  0  0
    4.0563   -3.4996    0.0000 O   0  0  0  0  0  0           0  0  0
    6.1267   -4.5796    0.0000 C   0  0  0  0  0  0           0  0  0
    6.1280   -5.3754    0.0000 O   0  0  0  0  0  0           0  0  0
    6.8112   -4.1824    0.0000 N   0  0  0  0  0  0           0  0  0
    7.4931   -4.5811    0.0000 C   0  0  0  0  0  0           0  0  0
    8.2122   -3.3914    0.0000 C   0  0  0  0  0  0           0  0  0
    8.2098   -4.1724    0.0000 C   0  0  0  0  0  0           0  0  0
    8.8909   -4.5710    0.0000 C   0  0  0  0  0  0           0  0  0
    9.5764   -4.1696    0.0000 C   0  0  0  0  0  0           0  0  0
    9.5722   -3.3820    0.0000 C   0  0  0  0  0  0           0  0  0
    8.8864   -2.9872    0.0000 C   0  0  0  0  0  0           0  0  0
   10.2511   -2.9823    0.0000 O   0  0  0  0  0  0           0  0  0
   10.2588   -4.5673    0.0000 O   0  0  0  0  0  0           0  0  0
    5.4365   -4.1807    0.0000 C   0  0  2  0  0  0           0  0  0
    5.4369   -3.4256    0.0000 C   0  0  0  0  0  0           0  0  0
    6.0975   -2.2993    0.0000 N   0  0  3  0  0  0           0  0  0
    6.8131   -2.0748    0.0000 C   0  0  0  0  0  0           0  0  0
    7.2477   -2.6860    0.0000 N   0  0  0  0  0  0           0  0  0
    6.8007   -3.2883    0.0000 C   0  0  0  0  0  0           0  0  0
    6.0898   -3.0492    0.0000 C   0  0  0  0  0  0           0  0  0
    5.4952   -1.8523    0.0000 C   0  0  0  0  0  0           0  0  0
    5.5813   -1.1072    0.0000 C   0  0  3  0  0  0           0  0  0
    4.9790   -0.6602    0.0000 C   0  0  0  0  0  0           0  0  0
    6.2695   -0.8092    0.0000 C   0  0  0  0  0  0           0  0  0
    4.9936   -1.5732    0.0000 C   0  0  0  0  0  0           0  0  0
    5.0673    0.0839    0.0000 C   0  0  0  0  0  0           0  0  0
    4.4659    0.5307    0.0000 C   0  0  0  0  0  0           0  0  0
    3.7767    0.2327    0.0000 C   0  0  0  0  0  0           0  0  0
    3.6927   -0.5165    0.0000 C   0  0  0  0  0  0           0  0  0
    4.2951   -0.9600    0.0000 C   0  0  0  0  0  0           0  0  0
    6.8711   -1.2574    0.0000 C   0  0  0  0  0  0           0  0  0
    7.5588   -0.9599    0.0000 C   0  0  0  0  0  0           0  0  0
    7.6453   -0.2141    0.0000 C   0  0  0  0  0  0           0  0  0
    7.0386    0.2333    0.0000 C   0  0  0  0  0  0           0  0  0
    6.3532   -0.0666    0.0000 C   0  0  0  0  0  0           0  0  0
    4.2989   -1.2938    0.0000 C   0  0  0  0  0  0           0  0  0
    3.7116   -1.7591    0.0000 C   0  0  0  0  0  0           0  0  0
    3.8211   -2.5019    0.0000 C   0  0  0  0  0  0           0  0  0
    4.5230   -2.7770    0.0000 C   0  0  0  0  0  0           0  0  0
    5.1073   -2.3099    0.0000 C   0  0  0  0  0  0           0  0  0
  8  7  2  0     0  0
 24 26  1  0     0  0
 12  7  1  0     0  0
 23 27  1  0     0  0
 10  9  1  0     0  0
 28 29  1  1     0  0
 29 34  1  0     0  0
 11 14  1  0     0  0
  2  1  1  0     0  0
 30 31  1  0     0  0
 11 15  2  0     0  0
 31 32  2  0     0  0
 14 28  1  0     0  0
 32 33  1  0     0  0
  4  1  2  0     0  0
 33 34  2  0     0  0
 34 30  1  0     0  0
 28 16  1  0     0  0
 30 35  1  0     0  0
  3  2  2  0     0  0
 35 36  1  0     0  0
 16 17  2  0     0  0
 36 37  1  0     0  0
  5  2  1  0     0  0
 36 38  1  0     0  0
 16 18  1  0     0  0
 36 39  1  0     0  0
  6  3  1  0     0  0
 37 40  2  0     0  0
 18 19  1  0     0  0
 40 41  1  0     0  0
 19 21  1  0     0  0
 41 42  2  0     0  0
  7  3  1  0     0  0
 42 43  1  0     0  0
  8  4  1  0     0  0
 43 44  2  0     0  0
 44 37  1  0     0  0
 20 21  2  0     0  0
 38 45  2  0     0  0
 11  4  1  0     0  0
 45 46  1  0     0  0
 21 22  1  0     0  0
 46 47  2  0     0  0
 10  5  2  0     0  0
 47 48  1  0     0  0
 22 23  2  0     0  0
 48 49  2  0     0  0
 49 38  1  0     0  0
 13  5  1  0     0  0
 39 50  2  0     0  0
 23 24  1  0     0  0
 50 51  1  0     0  0
  9  6  2  0     0  0
 51 52  2  0     0  0
 24 25  2  0     0  0
 52 53  1  0     0  0
 25 20  1  0     0  0
 53 54  2  0     0  0
 54 39  1  0     0  0
M  END
>  <prID>
569

>  <IDDB>
167943

>  <pIC50_HIV_Integrase>
6.216811309

>  <Q>
-1.682007079

>  <Activity_Integrase>
Active_Integrase

NA
NA
NA
NA
$$$$

  Accelrys05311914322D 1   1.00000     0.00000     0

 37 40  0     0  0            999 V2000
    3.1714   -5.6920    0.0000 N   0  0  0  0  0  0           0  0  0
    2.2884   -6.1982    0.0000 C   0  0  0  0  0  0           0  0  0
    1.4245   -5.6917    0.0000 C   0  0  0  0  0  0           0  0  0
    3.1821   -4.6752    0.0000 C   0  0  0  0  0  0           0  0  0
    2.2948   -7.1788    0.0000 C   0  0  0  0  0  0           0  0  0
    0.5670   -6.1658    0.0000 C   0  0  0  0  0  0           0  0  0
    1.4394   -4.6749    0.0000 C   0  0  0  0  0  0           0  0  0
    2.3182   -4.1688    0.0000 C   0  0  0  0  0  0           0  0  0
    0.5585   -7.1645    0.0000 C   0  0  0  0  0  0           0  0  0
    1.4266   -7.6752    0.0000 C   0  0  0  0  0  0           0  0  0
    4.0545   -4.1830    0.0000 C   0  0  0  0  0  0           0  0  0
    0.5755   -4.1685    0.0000 O   0  0  0  0  0  0           0  0  0
    3.1735   -7.6754    0.0000 O   0  0  0  0  0  0           0  0  0
    4.7436   -4.5818    0.0000 N   0  0  0  0  0  0           0  0  0
    4.0563   -3.4996    0.0000 O   0  0  0  0  0  0           0  0  0
    6.1267   -4.5796    0.0000 C   0  0  0  0  0  0           0  0  0
    6.1280   -5.3754    0.0000 O   0  0  0  0  0  0           0  0  0
    6.8112   -4.1824    0.0000 N   0  0  0  0  0  0           0  0  0
    7.4931   -4.5811    0.0000 N   0  0  0  0  0  0           0  0  0
    8.2098   -4.1724    0.0000 C   0  0  0  0  0  0           0  0  0
    5.4365   -4.1807    0.0000 C   0  0  2  0  0  0           0  0  0
    5.4369   -3.4256    0.0000 C   0  0  0  0  0  0           0  0  0
    6.0909   -3.0483    0.0000 C   0  0  0  0  0  0           0  0  0
    6.7426   -3.4271    0.0000 C   0  0  0  0  0  0           0  0  0
    7.3963   -3.0505    0.0000 C   0  0  0  0  0  0           0  0  0
    7.3970   -2.2946    0.0000 C   0  0  0  0  0  0           0  0  0
    6.7386   -1.9169    0.0000 C   0  0  0  0  0  0           0  0  0
    6.0877   -2.2957    0.0000 C   0  0  0  0  0  0           0  0  0
    8.0513   -1.9161    0.0000 O   0  0  0  0  0  0           0  0  0
    8.9220   -4.5888    0.0000 C   0  0  0  0  0  0           0  0  0
    8.2143   -3.3474    0.0000 O   0  0  0  0  0  0           0  0  0
    8.9136   -5.4135    0.0000 C   0  0  0  0  0  0           0  0  0
    9.6250   -5.8298    0.0000 C   0  0  0  0  0  0           0  0  0
   10.3427   -5.4212    0.0000 C   0  0  0  0  0  0           0  0  0
   10.3445   -4.5919    0.0000 C   0  0  0  0  0  0           0  0  0
    9.6325   -4.1793    0.0000 C   0  0  0  0  0  0           0  0  0
    9.6335   -3.3543    0.0000 O   0  0  0  0  0  0           0  0  0
  5  2  1  0     0  0
 16 18  1  0     0  0
  6  3  1  0     0  0
 18 19  1  0     0  0
 19 20  1  0     0  0
  7  3  1  0     0  0
  8  4  1  0     0  0
 21 22  1  1     0  0
 11  4  1  0     0  0
 10  5  2  0     0  0
 22 23  1  0     0  0
 13  5  1  0     0  0
 23 24  2  0     0  0
  9  6  2  0     0  0
 24 25  1  0     0  0
  8  7  2  0     0  0
 25 26  2  0     0  0
 12  7  1  0     0  0
 26 27  1  0     0  0
 10  9  1  0     0  0
 27 28  2  0     0  0
 28 23  1  0     0  0
 26 29  1  0     0  0
 11 14  1  0     0  0
 20 30  1  0     0  0
  2  1  1  0     0  0
 20 31  2  0     0  0
 11 15  2  0     0  0
 30 32  2  0     0  0
 14 21  1  0     0  0
 32 33  1  0     0  0
  4  1  2  0     0  0
 33 34  2  0     0  0
 21 16  1  0     0  0
 34 35  1  0     0  0
  3  2  2  0     0  0
 35 36  2  0     0  0
 36 30  1  0     0  0
 16 17  2  0     0  0
 36 37  1  0     0  0
M  END
>  <prID>
570

>  <IDDB>
167945

>  <pIC50_HIV_Integrase>
5.657577319

>  <Q>
-4.366860214

>  <Activity_Integrase>
Inactive_Integrase

NA
NA
NA
NA
$$$$

  Accelrys05311914322D 1   1.00000     0.00000     0

 35 37  0     0  0            999 V2000
    3.1821   -4.6752    0.0000 C   0  0  0  0  0  0           0  0  0
    4.0545   -4.1830    0.0000 C   0  0  0  0  0  0           0  0  0
    4.7436   -4.5818    0.0000 N   0  0  0  0  0  0           0  0  0
    4.0563   -3.4996    0.0000 O   0  0  0  0  0  0           0  0  0
    6.1267   -4.5796    0.0000 C   0  0  0  0  0  0           0  0  0
    6.1280   -5.3754    0.0000 O   0  0  0  0  0  0           0  0  0
    6.8112   -4.1824    0.0000 N   0  0  0  0  0  0           0  0  0
    7.4931   -4.5811    0.0000 N   0  0  0  0  0  0           0  0  0
    8.2098   -4.1724    0.0000 C   0  0  0  0  0  0           0  0  0
    5.4365   -4.1807    0.0000 C   0  0  2  0  0  0           0  0  0
    5.4369   -3.4256    0.0000 C   0  0  0  0  0  0           0  0  0
    6.0909   -3.0483    0.0000 C   0  0  0  0  0  0           0  0  0
    6.7426   -3.4271    0.0000 C   0  0  0  0  0  0           0  0  0
    7.3963   -3.0505    0.0000 C   0  0  0  0  0  0           0  0  0
    7.3970   -2.2946    0.0000 C   0  0  0  0  0  0           0  0  0
    6.7386   -1.9169    0.0000 C   0  0  0  0  0  0           0  0  0
    6.0877   -2.2957    0.0000 C   0  0  0  0  0  0           0  0  0
    8.0513   -1.9161    0.0000 O   0  0  0  0  0  0           0  0  0
    8.9220   -4.5888    0.0000 C   0  0  0  0  0  0           0  0  0
    8.2143   -3.3474    0.0000 O   0  0  0  0  0  0           0  0  0
    8.9136   -5.4135    0.0000 C   0  0  0  0  0  0           0  0  0
    9.6250   -5.8298    0.0000 C   0  0  0  0  0  0           0  0  0
   10.3427   -5.4212    0.0000 C   0  0  0  0  0  0           0  0  0
   10.3445   -4.5919    0.0000 C   0  0  0  0  0  0           0  0  0
    9.6325   -4.1793    0.0000 C   0  0  0  0  0  0           0  0  0
    9.6335   -3.3543    0.0000 O   0  0  0  0  0  0           0  0  0
    2.3197   -4.1659    0.0000 C   0  0  0  0  0  0           0  0  0
    1.4473   -4.6581    0.0000 C   0  0  0  0  0  0           0  0  0
    0.5905   -4.1460    0.0000 C   0  0  0  0  0  0           0  0  0
   -0.2812   -4.6374    0.0000 C   0  0  0  0  0  0           0  0  0
   -0.2917   -5.6400    0.0000 C   0  0  0  0  0  0           0  0  0
    0.5769   -6.1493    0.0000 C   0  0  0  0  0  0           0  0  0
    1.4451   -5.6550    0.0000 C   0  0  0  0  0  0           0  0  0
   -1.1426   -4.1281    0.0000 O   0  0  0  0  0  0           0  0  0
   -1.1643   -6.1340    0.0000 O   0  0  0  0  0  0           0  0  0
  8  9  1  0     0  0
 15 18  1  0     0  0
  3 10  1  0     0  0
  9 19  1  0     0  0
  9 20  2  0     0  0
 10 11  1  1     0  0
 19 21  2  0     0  0
 10  5  1  0     0  0
 21 22  1  0     0  0
  2  3  1  0     0  0
 22 23  2  0     0  0
 11 12  1  0     0  0
 23 24  1  0     0  0
  5  6  2  0     0  0
 24 25  2  0     0  0
 25 19  1  0     0  0
 12 13  2  0     0  0
 25 26  1  0     0  0
  2  1  1  0     0  0
  1 27  2  0     0  0
 13 14  1  0     0  0
 27 28  1  0     0  0
  5  7  1  0     0  0
 28 29  2  0     0  0
 14 15  2  0     0  0
 29 30  1  0     0  0
  2  4  2  0     0  0
 30 31  2  0     0  0
 15 16  1  0     0  0
 31 32  1  0     0  0
  7  8  1  0     0  0
 32 33  2  0     0  0
 33 28  1  0     0  0
 16 17  2  0     0  0
 30 34  1  0     0  0
 17 12  1  0     0  0
 31 35  1  0     0  0
M  END
>  <prID>
571

>  <IDDB>
167946

>  <pIC50_HIV_Integrase>
6.086186148

>  <Q>
-3.936560566

>  <Activity_Integrase>
Active_Integrase

NA
NA
NA
NA
$$$$

  Accelrys05311914322D 1   1.00000     0.00000     0

 37 40  0     0  0            999 V2000
    3.1821   -4.6752    0.0000 C   0  0  0  0  0  0           0  0  0
    4.0545   -4.1830    0.0000 C   0  0  0  0  0  0           0  0  0
    4.7436   -4.5818    0.0000 N   0  0  0  0  0  0           0  0  0
    4.0563   -3.4996    0.0000 O   0  0  0  0  0  0           0  0  0
    6.1267   -4.5796    0.0000 C   0  0  0  0  0  0           0  0  0
    6.1280   -5.3754    0.0000 O   0  0  0  0  0  0           0  0  0
    6.8112   -4.1824    0.0000 N   0  0  0  0  0  0           0  0  0
    7.4931   -4.5811    0.0000 N   0  0  0  0  0  0           0  0  0
    8.2098   -4.1724    0.0000 C   0  0  0  0  0  0           0  0  0
    5.4365   -4.1807    0.0000 C   0  0  2  0  0  0           0  0  0
    5.4369   -3.4256    0.0000 C   0  0  0  0  0  0           0  0  0
    6.0909   -3.0483    0.0000 C   0  0  0  0  0  0           0  0  0
    8.9220   -4.5888    0.0000 C   0  0  0  0  0  0           0  0  0
    8.2143   -3.3474    0.0000 O   0  0  0  0  0  0           0  0  0
    8.9136   -5.4135    0.0000 C   0  0  0  0  0  0           0  0  0
    9.6250   -5.8298    0.0000 C   0  0  0  0  0  0           0  0  0
   10.3427   -5.4212    0.0000 C   0  0  0  0  0  0           0  0  0
   10.3445   -4.5919    0.0000 C   0  0  0  0  0  0           0  0  0
    9.6325   -4.1793    0.0000 C   0  0  0  0  0  0           0  0  0
    9.6335   -3.3543    0.0000 O   0  0  0  0  0  0           0  0  0
    2.3197   -4.1659    0.0000 C   0  0  0  0  0  0           0  0  0
    1.4473   -4.6581    0.0000 C   0  0  0  0  0  0           0  0  0
    0.5905   -4.1460    0.0000 C   0  0  0  0  0  0           0  0  0
   -0.2812   -4.6374    0.0000 C   0  0  0  0  0  0           0  0  0
   -0.2917   -5.6400    0.0000 C   0  0  0  0  0  0           0  0  0
    0.5769   -6.1493    0.0000 C   0  0  0  0  0  0           0  0  0
    1.4451   -5.6550    0.0000 C   0  0  0  0  0  0           0  0  0
   -1.1426   -4.1281    0.0000 O   0  0  0  0  0  0           0  0  0
   -1.1643   -6.1340    0.0000 O   0  0  0  0  0  0           0  0  0
    6.7784   -3.3520    0.0000 C   0  0  0  0  0  0           0  0  0
    7.2839   -2.7911    0.0000 N   0  0  0  0  0  0           0  0  0
    6.1680   -2.2938    0.0000 C   0  0  0  0  0  0           0  0  0
    6.9056   -2.1380    0.0000 C   0  0  0  0  0  0           0  0  0
    7.1381   -1.4227    0.0000 C   0  0  0  0  0  0           0  0  0
    6.6340   -0.8625    0.0000 C   0  0  0  0  0  0           0  0  0
    5.8943   -1.0224    0.0000 C   0  0  0  0  0  0           0  0  0
    5.6653   -1.7375    0.0000 C   0  0  0  0  0  0           0  0  0
 18 19  2  0     0  0
 19 13  1  0     0  0
 19 20  1  0     0  0
 10 11  1  1     0  0
  1 21  2  0     0  0
 10  5  1  0     0  0
 21 22  1  0     0  0
  2  3  1  0     0  0
 22 23  2  0     0  0
 11 12  1  0     0  0
 23 24  1  0     0  0
  5  6  2  0     0  0
 24 25  2  0     0  0
  9 13  1  0     0  0
 25 26  1  0     0  0
  2  1  1  0     0  0
 26 27  2  0     0  0
 27 22  1  0     0  0
  9 14  2  0     0  0
 24 28  1  0     0  0
  5  7  1  0     0  0
 25 29  1  0     0  0
 12 30  2  0     0  0
 13 15  2  0     0  0
  2  4  2  0     0  0
 30 31  1  0     0  0
 31 33  1  0     0  0
 32 12  1  0     0  0
 15 16  1  0     0  0
  7  8  1  0     0  0
 32 33  2  0     0  0
 16 17  2  0     0  0
 33 34  1  0     0  0
  8  9  1  0     0  0
 34 35  2  0     0  0
 17 18  1  0     0  0
 35 36  1  0     0  0
  3 10  1  0     0  0
 36 37  2  0     0  0
 37 32  1  0     0  0
M  END
>  <prID>
572

>  <IDDB>
167947

>  <pIC50_HIV_Integrase>
5.920818754

>  <Q>
-3.625319561

>  <Activity_Integrase>
Inactive_Integrase

NA
NA
NA
NA
$$$$

  Accelrys05311914322D 1   1.00000     0.00000     0

 36 38  0     0  0            999 V2000
    3.1821   -4.6752    0.0000 C   0  0  0  0  0  0           0  0  0
    4.0545   -4.1830    0.0000 C   0  0  0  0  0  0           0  0  0
    4.7436   -4.5818    0.0000 N   0  0  0  0  0  0           0  0  0
    4.0563   -3.4996    0.0000 O   0  0  0  0  0  0           0  0  0
    6.1267   -4.5796    0.0000 C   0  0  0  0  0  0           0  0  0
    6.1280   -5.3754    0.0000 O   0  0  0  0  0  0           0  0  0
    6.8112   -4.1824    0.0000 N   0  0  0  0  0  0           0  0  0
    7.4931   -4.5811    0.0000 N   0  0  0  0  0  0           0  0  0
    8.2098   -4.1724    0.0000 C   0  0  0  0  0  0           0  0  0
    5.4365   -4.1807    0.0000 C   0  0  2  0  0  0           0  0  0
    5.4369   -3.4256    0.0000 C   0  0  0  0  0  0           0  0  0
    6.0909   -3.0483    0.0000 C   0  0  0  0  0  0           0  0  0
    8.9220   -4.5888    0.0000 C   0  0  0  0  0  0           0  0  0
    8.2143   -3.3474    0.0000 O   0  0  0  0  0  0           0  0  0
    8.9136   -5.4135    0.0000 C   0  0  0  0  0  0           0  0  0
    9.6250   -5.8298    0.0000 C   0  0  0  0  0  0           0  0  0
   10.3427   -5.4212    0.0000 C   0  0  0  0  0  0           0  0  0
   10.3445   -4.5919    0.0000 C   0  0  0  0  0  0           0  0  0
    9.6325   -4.1793    0.0000 C   0  0  0  0  0  0           0  0  0
    9.6335   -3.3543    0.0000 O   0  0  0  0  0  0           0  0  0
    2.3197   -4.1659    0.0000 C   0  0  0  0  0  0           0  0  0
    1.4473   -4.6581    0.0000 C   0  0  0  0  0  0           0  0  0
    0.5905   -4.1460    0.0000 C   0  0  0  0  0  0           0  0  0
   -0.2812   -4.6374    0.0000 C   0  0  0  0  0  0           0  0  0
   -0.2917   -5.6400    0.0000 C   0  0  0  0  0  0           0  0  0
    0.5769   -6.1493    0.0000 C   0  0  0  0  0  0           0  0  0
    1.4451   -5.6550    0.0000 C   0  0  0  0  0  0           0  0  0
   -1.1426   -4.1281    0.0000 O   0  0  0  0  0  0           0  0  0
   -1.1643   -6.1340    0.0000 O   0  0  0  0  0  0           0  0  0
    6.7426   -3.4271    0.0000 C   0  0  0  0  0  0           0  0  0
    7.3963   -3.0505    0.0000 C   0  0  0  0  0  0           0  0  0
    7.3970   -2.2946    0.0000 C   0  0  0  0  0  0           0  0  0
    6.7386   -1.9169    0.0000 C   0  0  0  0  0  0           0  0  0
    6.0877   -2.2957    0.0000 C   0  0  0  0  0  0           0  0  0
    8.0513   -1.9161    0.0000 O   0  0  0  0  0  0           0  0  0
    6.7363   -1.1579    0.0000 O   0  0  0  0  0  0           0  0  0
  3 10  1  0     0  0
 18 19  2  0     0  0
 19 13  1  0     0  0
 19 20  1  0     0  0
 10 11  1  1     0  0
  1 21  2  0     0  0
 10  5  1  0     0  0
 21 22  1  0     0  0
  2  3  1  0     0  0
 22 23  2  0     0  0
 11 12  1  0     0  0
 23 24  1  0     0  0
  5  6  2  0     0  0
 24 25  2  0     0  0
  9 13  1  0     0  0
 25 26  1  0     0  0
  2  1  1  0     0  0
 26 27  2  0     0  0
 27 22  1  0     0  0
  9 14  2  0     0  0
 24 28  1  0     0  0
  5  7  1  0     0  0
 25 29  1  0     0  0
 13 15  2  0     0  0
 12 30  2  0     0  0
  2  4  2  0     0  0
 30 31  1  0     0  0
 15 16  1  0     0  0
 31 32  2  0     0  0
  7  8  1  0     0  0
 32 33  1  0     0  0
 16 17  2  0     0  0
 33 34  2  0     0  0
 34 12  1  0     0  0
  8  9  1  0     0  0
 32 35  1  0     0  0
 17 18  1  0     0  0
 33 36  1  0     0  0
M  END
>  <prID>
573

>  <IDDB>
167948

>  <pIC50_HIV_Integrase>
6.416801226

>  <Q>
-4.751336733

>  <Activity_Integrase>
Active_Integrase

NA
NA
NA
NA
$$$$

  Accelrys05311914322D 1   1.00000     0.00000     0

 39 43  0     0  0            999 V2000
    5.0582   -4.9366    0.0000 N   0  0  0  0  0  0           0  0  0
    4.2086   -5.4220    0.0000 C   0  0  0  0  0  0           0  0  0
    3.3780   -4.9364    0.0000 C   0  0  0  0  0  0           0  0  0
    5.0690   -3.9574    0.0000 C   0  0  0  0  0  0           0  0  0
    4.2150   -6.3651    0.0000 C   0  0  0  0  0  0           0  0  0
    2.5538   -5.3896    0.0000 C   0  0  0  0  0  0           0  0  0
    3.3930   -3.9571    0.0000 C   0  0  0  0  0  0           0  0  0
    4.2384   -3.4717    0.0000 C   0  0  0  0  0  0           0  0  0
    2.5454   -6.3508    0.0000 C   0  0  0  0  0  0           0  0  0
    3.3801   -6.8406    0.0000 C   0  0  0  0  0  0           0  0  0
    2.5624   -3.4714    0.0000 O   0  0  0  0  0  0           0  0  0
    5.0603   -6.8409    0.0000 O   0  0  0  0  0  0           0  0  0
    5.9211   -3.4747    0.0000 C   0  0  0  0  0  0           0  0  0
    6.5936   -3.8652    0.0000 N   0  0  0  0  0  0           0  0  0
    5.9230   -2.8079    0.0000 O   0  0  0  0  0  0           0  0  0
    7.9433   -3.8629    0.0000 C   0  0  0  0  0  0           0  0  0
    7.9446   -4.6379    0.0000 O   0  0  0  0  0  0           0  0  0
    8.6112   -3.4741    0.0000 N   0  0  0  0  0  0           0  0  0
    9.2764   -3.8644    0.0000 N   0  0  0  0  0  0           0  0  0
    9.9765   -3.4641    0.0000 C   0  0  0  0  0  0           0  0  0
    7.2699   -3.4724    0.0000 C   0  0  2  0  0  0           0  0  0
    7.2702   -2.7381    0.0000 C   0  0  0  0  0  0           0  0  0
    7.9076   -2.3692    0.0000 C   0  0  0  0  0  0           0  0  0
   10.6679   -3.8721    0.0000 C   0  0  0  0  0  0           0  0  0
    9.9768   -2.6599    0.0000 O   0  0  0  0  0  0           0  0  0
   10.6594   -4.6760    0.0000 C   0  0  0  0  0  0           0  0  0
   11.3541   -5.0798    0.0000 C   0  0  0  0  0  0           0  0  0
   12.0552   -4.6837    0.0000 C   0  0  0  0  0  0           0  0  0
   12.0570   -3.8752    0.0000 C   0  0  0  0  0  0           0  0  0
   11.3617   -3.4710    0.0000 C   0  0  0  0  0  0           0  0  0
   11.3626   -2.6668    0.0000 O   0  0  0  0  0  0           0  0  0
    8.5786   -2.6644    0.0000 C   0  0  0  0  0  0           0  0  0
    9.0708   -2.1165    0.0000 N   0  0  0  0  0  0           0  0  0
    7.9817   -1.6331    0.0000 C   0  0  0  0  0  0           0  0  0
    8.7004   -1.4796    0.0000 C   0  0  0  0  0  0           0  0  0
    8.9255   -0.7818    0.0000 C   0  0  0  0  0  0           0  0  0
    8.4328   -0.2367    0.0000 C   0  0  0  0  0  0           0  0  0
    7.7121   -0.3943    0.0000 C   0  0  0  0  0  0           0  0  0
    7.4903   -1.0919    0.0000 C   0  0  0  0  0  0           0  0  0
  7  3  1  0     0  0
 18 19  1  0     0  0
 19 20  1  0     0  0
  8  4  1  0     0  0
 10  5  2  0     0  0
 21 22  1  1     0  0
 12  5  1  0     0  0
  9  6  2  0     0  0
 22 23  1  0     0  0
  8  7  2  0     0  0
 20 24  1  0     0  0
 11  7  1  0     0  0
 20 25  2  0     0  0
 10  9  1  0     0  0
 24 26  2  0     0  0
 26 27  1  0     0  0
  4 13  1  0     0  0
 27 28  2  0     0  0
  2  1  1  0     0  0
 28 29  1  0     0  0
 13 14  1  0     0  0
 29 30  2  0     0  0
 30 24  1  0     0  0
  4  1  2  0     0  0
 30 31  1  0     0  0
 23 32  2  0     0  0
 13 15  2  0     0  0
 14 21  1  0     0  0
 32 33  1  0     0  0
 33 35  1  0     0  0
 34 23  1  0     0  0
  3  2  2  0     0  0
 21 16  1  0     0  0
 34 35  2  0     0  0
  5  2  1  0     0  0
 35 36  1  0     0  0
 16 17  2  0     0  0
 36 37  2  0     0  0
  6  3  1  0     0  0
 37 38  1  0     0  0
 16 18  1  0     0  0
 38 39  2  0     0  0
 39 34  1  0     0  0
M  END
>  <prID>
574

>  <IDDB>
167949

>  <pIC50_HIV_Integrase>
5.327902142

>  <Q>
-4.055619309

>  <Activity_Integrase>
Inactive_Integrase

NA
NA
NA
NA
$$$$

  Accelrys05311914322D 1   1.00000     0.00000     0

 45 48  0     0  0            999 V2000
    5.9211   -3.4747    0.0000 C   0  0  0  0  0  0           0  0  0
    6.5936   -3.8652    0.0000 N   0  0  0  0  0  0           0  0  0
    5.9230   -2.8079    0.0000 O   0  0  0  0  0  0           0  0  0
    7.9433   -3.8629    0.0000 C   0  0  0  0  0  0           0  0  0
    7.9446   -4.6379    0.0000 O   0  0  0  0  0  0           0  0  0
    8.6112   -3.4741    0.0000 N   0  0  0  0  0  0           0  0  0
    9.2764   -3.8644    0.0000 N   0  0  0  0  0  0           0  0  0
    9.9765   -3.4641    0.0000 C   0  0  0  0  0  0           0  0  0
    7.2699   -3.4724    0.0000 C   0  0  2  0  0  0           0  0  0
    7.2702   -2.7381    0.0000 C   0  0  0  0  0  0           0  0  0
    7.9076   -2.3692    0.0000 C   0  0  0  0  0  0           0  0  0
   10.6679   -3.8721    0.0000 C   0  0  0  0  0  0           0  0  0
    9.9768   -2.6599    0.0000 O   0  0  0  0  0  0           0  0  0
   10.6594   -4.6760    0.0000 C   0  0  0  0  0  0           0  0  0
   11.3541   -5.0798    0.0000 C   0  0  0  0  0  0           0  0  0
   12.0552   -4.6837    0.0000 C   0  0  0  0  0  0           0  0  0
   12.0570   -3.8752    0.0000 C   0  0  0  0  0  0           0  0  0
   11.3617   -3.4710    0.0000 C   0  0  0  0  0  0           0  0  0
   11.3626   -2.6668    0.0000 O   0  0  0  0  0  0           0  0  0
    8.5786   -2.6644    0.0000 C   0  0  0  0  0  0           0  0  0
    9.0708   -2.1165    0.0000 N   0  0  0  0  0  0           0  0  0
    8.7019   -1.4790    0.0000 C   0  0  0  0  0  0           0  0  0
    7.9817   -1.6331    0.0000 N   0  0  3  0  0  0           0  0  0
    7.4330   -1.1418    0.0000 C   0  0  0  0  0  0           0  0  0
    7.5864   -0.4207    0.0000 C   0  0  0  0  0  0           0  0  0
    7.0384    0.0703    0.0000 C   0  0  0  0  0  0           0  0  0
    6.3378   -0.1591    0.0000 C   0  0  0  0  0  0           0  0  0
    6.1882   -0.8841    0.0000 C   0  0  0  0  0  0           0  0  0
    6.7374   -1.3720    0.0000 C   0  0  0  0  0  0           0  0  0
    8.2873   -0.1921    0.0000 N   0  3  0  0  0  0           0  0  0
    5.7879    0.3319    0.0000 N   0  3  0  0  0  0           0  0  0
    5.9381    1.0537    0.0000 O   0  5  0  0  0  0           0  0  0
    5.0876    0.1012    0.0000 O   0  0  0  0  0  0           0  0  0
    8.8358   -0.6848    0.0000 O   0  5  0  0  0  0           0  0  0
    8.4398    0.5293    0.0000 O   0  0  0  0  0  0           0  0  0
    5.2056   -3.8853    0.0000 C   0  0  0  0  0  0           0  0  0
    4.4922   -3.4709    0.0000 C   0  0  0  0  0  0           0  0  0
    3.7766   -3.8815    0.0000 C   0  0  0  0  0  0           0  0  0
    3.0666   -3.4639    0.0000 C   0  0  0  0  0  0           0  0  0
    2.3515   -3.8739    0.0000 C   0  0  0  0  0  0           0  0  0
    2.3489   -4.6997    0.0000 C   0  0  0  0  0  0           0  0  0
    3.0673   -5.1140    0.0000 C   0  0  0  0  0  0           0  0  0
    3.7794   -4.7017    0.0000 C   0  0  0  0  0  0           0  0  0
    1.6339   -5.1113    0.0000 O   0  0  0  0  0  0           0  0  0
    1.6383   -3.4591    0.0000 O   0  0  0  0  0  0           0  0  0
 21 22  2  0     0  0
 22 23  1  0     0  0
 23 11  1  0     0  0
  8 12  1  0     0  0
 23 24  1  0     0  0
  4  6  1  0     0  0
 24 25  2  0     0  0
  8 13  2  0     0  0
 25 26  1  0     0  0
  2  9  1  0     0  0
 26 27  2  0     0  0
 12 14  2  0     0  0
 27 28  1  0     0  0
  6  7  1  0     0  0
 28 29  2  0     0  0
 29 24  1  0     0  0
 14 15  1  0     0  0
 25 30  1  0     0  0
  7  8  1  0     0  0
 27 31  1  0     0  0
 15 16  2  0     0  0
 31 32  1  0     0  0
  1  2  1  0     0  0
 31 33  2  0     0  0
 16 17  1  0     0  0
 30 34  1  0     0  0
  9  4  1  0     0  0
 30 35  2  0     0  0
 17 18  2  0     0  0
  1 36  1  0     0  0
 18 12  1  0     0  0
 36 37  2  0     0  0
  9 10  1  1     0  0
 37 38  1  0     0  0
 18 19  1  0     0  0
 38 39  2  0     0  0
 11 20  2  0     0  0
 39 40  1  0     0  0
 40 41  2  0     0  0
  4  5  2  0     0  0
 41 42  1  0     0  0
 10 11  1  0     0  0
 42 43  2  0     0  0
 43 38  1  0     0  0
  1  3  2  0     0  0
 41 44  1  0     0  0
 20 21  1  0     0  0
 40 45  1  0     0  0
M  CHG  4  30   1  31   1  32  -1  34  -1
M  END
>  <prID>
575

>  <IDDB>
167952

>  <pIC50_HIV_Integrase>
6.600326279

>  <Q>
-3.037755398

>  <Activity_Integrase>
Active_Integrase

NA
NA
NA
NA
$$$$

  Accelrys05311914322D 1   1.00000     0.00000     0

 51 55  0     0  0            999 V2000
    8.6101   -3.4778    0.0000 N   0  0  0  0  0  0           0  0  0
    9.4990   -4.0068    0.0000 C   0  0  0  0  0  0           0  0  0
   10.4238   -3.5021    0.0000 C   0  0  0  0  0  0           0  0  0
    9.4716   -5.0564    0.0000 C   0  0  0  0  0  0           0  0  0
   11.3213   -4.0470    0.0000 C   0  0  0  0  0  0           0  0  0
   10.3691   -5.6014    0.0000 C   0  0  0  0  0  0           0  0  0
   11.2940   -5.0967    0.0000 C   0  0  0  0  0  0           0  0  0
   10.4512   -2.4525    0.0000 O   0  0  0  0  0  0           0  0  0
   11.4119   -1.9757    0.0000 C   0  0  0  0  0  0           0  0  0
   10.3418   -6.6510    0.0000 O   0  0  0  0  0  0           0  0  0
   11.2552   -7.1873    0.0000 C   0  0  0  0  0  0           0  0  0
    5.9211   -3.4747    0.0000 C   0  0  0  0  0  0           0  0  0
    6.5936   -3.8652    0.0000 N   0  0  0  0  0  0           0  0  0
    5.9230   -2.8079    0.0000 O   0  0  0  0  0  0           0  0  0
    7.9433   -3.8629    0.0000 C   0  0  0  0  0  0           0  0  0
    7.9446   -4.6379    0.0000 O   0  0  0  0  0  0           0  0  0
    7.2699   -3.4724    0.0000 C   0  0  2  0  0  0           0  0  0
    7.2702   -2.7381    0.0000 C   0  0  0  0  0  0           0  0  0
    5.2056   -3.8853    0.0000 C   0  0  0  0  0  0           0  0  0
    4.4922   -3.4709    0.0000 C   0  0  0  0  0  0           0  0  0
    3.7766   -3.8815    0.0000 C   0  0  0  0  0  0           0  0  0
    3.0666   -3.4639    0.0000 C   0  0  0  0  0  0           0  0  0
    2.3515   -3.8739    0.0000 C   0  0  0  0  0  0           0  0  0
    2.3489   -4.6997    0.0000 C   0  0  0  0  0  0           0  0  0
    3.0673   -5.1140    0.0000 C   0  0  0  0  0  0           0  0  0
    3.7794   -4.7017    0.0000 C   0  0  0  0  0  0           0  0  0
    1.6383   -3.4591    0.0000 O   0  0  0  0  0  0           0  0  0
    1.6339   -5.1113    0.0000 O   0  0  0  0  0  0           0  0  0
    7.9062   -2.3713    0.0000 C   0  0  0  0  0  0           0  0  0
    7.9065   -1.6370    0.0000 C   0  0  0  0  0  0           0  0  0
    8.5426   -1.2702    0.0000 O   0  0  0  0  0  0           0  0  0
    7.2708   -1.2696    0.0000 N   0  0  0  0  0  0           0  0  0
    7.2711   -0.5354    0.0000 C   0  0  3  0  0  0           0  0  0
    6.6354   -0.1680    0.0000 C   0  0  0  0  0  0           0  0  0
    7.9072   -0.1685    0.0000 C   0  0  0  0  0  0           0  0  0
    6.7517   -1.0543    0.0000 C   0  0  0  0  0  0           0  0  0
    8.5416   -0.5368    0.0000 C   0  0  0  0  0  0           0  0  0
    9.1772   -0.1706    0.0000 C   0  0  0  0  0  0           0  0  0
    9.1779    0.5645    0.0000 C   0  0  0  0  0  0           0  0  0
    8.5377    0.9317    0.0000 C   0  0  0  0  0  0           0  0  0
    7.9047    0.5634    0.0000 C   0  0  0  0  0  0           0  0  0
    6.6400    0.5661    0.0000 C   0  0  0  0  0  0           0  0  0
    6.0051    0.9334    0.0000 C   0  0  0  0  0  0           0  0  0
    5.3682    0.5665    0.0000 C   0  0  0  0  0  0           0  0  0
    5.3702   -0.1716    0.0000 C   0  0  0  0  0  0           0  0  0
    6.0057   -0.5356    0.0000 C   0  0  0  0  0  0           0  0  0
    6.0428   -0.8599    0.0000 C   0  0  0  0  0  0           0  0  0
    5.5237   -1.3782    0.0000 C   0  0  0  0  0  0           0  0  0
    5.7132   -2.0884    0.0000 C   0  0  0  0  0  0           0  0  0
    6.4267   -2.2774    0.0000 C   0  0  0  0  0  0           0  0  0
    6.9427   -1.7578    0.0000 C   0  0  0  0  0  0           0  0  0
 12 13  1  0     0  0
 25 26  2  0     0  0
 26 21  1  0     0  0
  3  2  2  0     0  0
 23 27  1  0     0  0
 12 14  2  0     0  0
 24 28  1  0     0  0
 13 17  1  0     0  0
 18 29  1  0     0  0
  4  2  1  0     0  0
 29 30  1  0     0  0
 17 15  1  0     0  0
 30 31  2  0     0  0
  5  3  1  0     0  0
 30 32  1  0     0  0
 15 16  2  0     0  0
 32 33  1  0     0  0
 15  1  1  0     0  0
 33 34  1  0     0  0
  8  3  1  0     0  0
 33 35  1  0     0  0
 17 18  1  1     0  0
 33 36  1  0     0  0
  6  4  2  0     0  0
 35 37  2  0     0  0
  7  5  2  0     0  0
 37 38  1  0     0  0
 12 19  1  0     0  0
 38 39  2  0     0  0
  7  6  1  0     0  0
 39 40  1  0     0  0
 19 20  2  0     0  0
 40 41  2  0     0  0
 41 35  1  0     0  0
 10  6  1  0     0  0
 34 42  2  0     0  0
 20 21  1  0     0  0
 42 43  1  0     0  0
  9  8  1  0     0  0
 43 44  2  0     0  0
 21 22  2  0     0  0
 44 45  1  0     0  0
 11 10  1  0     0  0
 45 46  2  0     0  0
 46 34  1  0     0  0
 22 23  1  0     0  0
 36 47  2  0     0  0
 47 48  1  0     0  0
 23 24  2  0     0  0
 48 49  2  0     0  0
  2  1  1  0     0  0
 49 50  1  0     0  0
 24 25  1  0     0  0
 50 51  2  0     0  0
 51 36  1  0     0  0
M  END
>  <prID>
576

>  <IDDB>
167954

>  <pIC50_HIV_Integrase>
5.59345982

>  <Q>
-1.990022751

>  <Activity_Integrase>
Inactive_Integrase

NA
NA
NA
NA
$$$$

  Accelrys05311914322D 1   1.00000     0.00000     0

 49 53  0     0  0            999 V2000
    8.6101   -3.4778    0.0000 N   0  0  0  0  0  0           0  0  0
    9.4990   -4.0068    0.0000 C   0  0  0  0  0  0           0  0  0
   10.4238   -3.5021    0.0000 C   0  0  0  0  0  0           0  0  0
    9.4716   -5.0564    0.0000 C   0  0  0  0  0  0           0  0  0
   11.3213   -4.0470    0.0000 C   0  0  0  0  0  0           0  0  0
   10.3691   -5.6014    0.0000 C   0  0  0  0  0  0           0  0  0
   11.2940   -5.0967    0.0000 C   0  0  0  0  0  0           0  0  0
   10.4512   -2.4525    0.0000 O   0  0  0  0  0  0           0  0  0
   11.4119   -1.9757    0.0000 C   0  0  0  0  0  0           0  0  0
   10.3418   -6.6510    0.0000 O   0  0  0  0  0  0           0  0  0
   11.2552   -7.1873    0.0000 C   0  0  0  0  0  0           0  0  0
    5.9211   -3.4747    0.0000 C   0  0  0  0  0  0           0  0  0
    6.5936   -3.8652    0.0000 N   0  0  0  0  0  0           0  0  0
    5.9230   -2.8079    0.0000 O   0  0  0  0  0  0           0  0  0
    7.9433   -3.8629    0.0000 C   0  0  0  0  0  0           0  0  0
    7.9446   -4.6379    0.0000 O   0  0  0  0  0  0           0  0  0
    7.2699   -3.4724    0.0000 C   0  0  2  0  0  0           0  0  0
    7.2702   -2.7381    0.0000 C   0  0  0  0  0  0           0  0  0
    5.2056   -3.8853    0.0000 C   0  0  0  0  0  0           0  0  0
    7.9062   -2.3713    0.0000 C   0  0  0  0  0  0           0  0  0
    7.9065   -1.6370    0.0000 C   0  0  0  0  0  0           0  0  0
    8.5426   -1.2702    0.0000 O   0  0  0  0  0  0           0  0  0
    7.2708   -1.2696    0.0000 N   0  0  0  0  0  0           0  0  0
    7.2711   -0.5354    0.0000 C   0  0  3  0  0  0           0  0  0
    6.6354   -0.1680    0.0000 C   0  0  0  0  0  0           0  0  0
    7.9072   -0.1685    0.0000 C   0  0  0  0  0  0           0  0  0
    6.7517   -1.0543    0.0000 C   0  0  0  0  0  0           0  0  0
    8.5416   -0.5368    0.0000 C   0  0  0  0  0  0           0  0  0
    9.1772   -0.1706    0.0000 C   0  0  0  0  0  0           0  0  0
    9.1779    0.5645    0.0000 C   0  0  0  0  0  0           0  0  0
    8.5377    0.9317    0.0000 C   0  0  0  0  0  0           0  0  0
    7.9047    0.5634    0.0000 C   0  0  0  0  0  0           0  0  0
    6.6400    0.5661    0.0000 C   0  0  0  0  0  0           0  0  0
    6.0051    0.9334    0.0000 C   0  0  0  0  0  0           0  0  0
    5.3682    0.5665    0.0000 C   0  0  0  0  0  0           0  0  0
    5.3702   -0.1716    0.0000 C   0  0  0  0  0  0           0  0  0
    6.0057   -0.5356    0.0000 C   0  0  0  0  0  0           0  0  0
    6.0428   -0.8599    0.0000 C   0  0  0  0  0  0           0  0  0
    5.5237   -1.3782    0.0000 C   0  0  0  0  0  0           0  0  0
    5.7132   -2.0884    0.0000 C   0  0  0  0  0  0           0  0  0
    6.4267   -2.2774    0.0000 C   0  0  0  0  0  0           0  0  0
    6.9427   -1.7578    0.0000 C   0  0  0  0  0  0           0  0  0
    4.4950   -3.4677    0.0000 C   0  0  0  0  0  0           0  0  0
    3.7800   -3.8776    0.0000 C   0  0  0  0  0  0           0  0  0
    3.7774   -4.7035    0.0000 C   0  0  0  0  0  0           0  0  0
    4.4958   -5.1178    0.0000 C   0  0  0  0  0  0           0  0  0
    5.2079   -4.7055    0.0000 C   0  0  0  0  0  0           0  0  0
    3.0668   -3.4629    0.0000 O   0  0  0  0  0  0           0  0  0
    3.0623   -5.1151    0.0000 O   0  0  0  0  0  0           0  0  0
  2  1  1  0     0  0
 24 25  1  0     0  0
 12 13  1  0     0  0
 24 26  1  0     0  0
  3  2  2  0     0  0
 24 27  1  0     0  0
 12 14  2  0     0  0
 26 28  2  0     0  0
 13 17  1  0     0  0
 28 29  1  0     0  0
  4  2  1  0     0  0
 29 30  2  0     0  0
 17 15  1  0     0  0
 30 31  1  0     0  0
  5  3  1  0     0  0
 31 32  2  0     0  0
 32 26  1  0     0  0
 15 16  2  0     0  0
 25 33  2  0     0  0
 15  1  1  0     0  0
 33 34  1  0     0  0
  8  3  1  0     0  0
 34 35  2  0     0  0
 17 18  1  1     0  0
 35 36  1  0     0  0
  6  4  2  0     0  0
 36 37  2  0     0  0
 37 25  1  0     0  0
  7  5  2  0     0  0
 27 38  2  0     0  0
 12 19  1  0     0  0
 38 39  1  0     0  0
  7  6  1  0     0  0
 39 40  2  0     0  0
 18 20  1  0     0  0
 40 41  1  0     0  0
 10  6  1  0     0  0
 41 42  2  0     0  0
 42 27  1  0     0  0
 20 21  1  0     0  0
 19 43  2  0     0  0
  9  8  1  0     0  0
 43 44  1  0     0  0
 21 22  2  0     0  0
 44 45  2  0     0  0
 11 10  1  0     0  0
 45 46  1  0     0  0
 21 23  1  0     0  0
 46 47  2  0     0  0
 47 19  1  0     0  0
 44 48  1  0     0  0
 23 24  1  0     0  0
 45 49  1  0     0  0
M  END
>  <prID>
577

>  <IDDB>
167955

>  <pIC50_HIV_Integrase>
5.647817482

>  <Q>
-2.243589666

>  <Activity_Integrase>
Inactive_Integrase

NA
NA
NA
NA
$$$$

  Accelrys05311914332D 1   1.00000     0.00000     0

 50 55  0     0  0            999 V2000
    3.4552   -4.7584    0.0000 N   0  0  0  0  0  0           0  0  0
    4.4917   -4.9261    0.0000 C   0  0  0  0  0  0           0  0  0
    2.9293   -5.6610    0.0000 C   0  0  0  0  0  0           0  0  0
    3.6995   -6.4603    0.0000 C   0  0  0  0  0  0           0  0  0
    4.6209   -5.9682    0.0000 C   0  0  0  0  0  0           0  0  0
    1.9269   -5.9394    0.0000 C   0  0  0  0  0  0           0  0  0
    3.3840   -7.4516    0.0000 C   0  0  0  0  0  0           0  0  0
    2.4033   -7.7093    0.0000 C   0  0  0  0  0  0           0  0  0
    1.6331   -6.9100    0.0000 C   0  0  0  0  0  0           0  0  0
    5.2586   -4.1872    0.0000 C   0  0  0  0  0  0           0  0  0
    7.9768   -4.1903    0.0000 N   0  0  0  0  0  0           0  0  0
    8.8740   -4.7235    0.0000 C   0  0  0  0  0  0           0  0  0
    9.8071   -4.2146    0.0000 C   0  0  0  0  0  0           0  0  0
    8.8466   -5.7814    0.0000 C   0  0  0  0  0  0           0  0  0
   10.7172   -4.7637    0.0000 C   0  0  0  0  0  0           0  0  0
    9.7525   -6.3347    0.0000 C   0  0  0  0  0  0           0  0  0
   10.6898   -5.8259    0.0000 C   0  0  0  0  0  0           0  0  0
    9.8387   -3.1525    0.0000 O   0  0  0  0  0  0           0  0  0
   10.8077   -2.6715    0.0000 C   0  0  0  0  0  0           0  0  0
    9.7251   -7.3927    0.0000 O   0  0  0  0  0  0           0  0  0
   10.6511   -7.9373    0.0000 C   0  0  0  0  0  0           0  0  0
    5.9394   -4.5818    0.0000 N   0  0  0  0  0  0           0  0  0
    5.2605   -3.5121    0.0000 O   0  0  0  0  0  0           0  0  0
    7.3017   -4.5796    0.0000 C   0  0  0  0  0  0           0  0  0
    7.3030   -5.3587    0.0000 O   0  0  0  0  0  0           0  0  0
    6.6240   -4.1849    0.0000 C   0  0  2  0  0  0           0  0  0
    6.6244   -3.4423    0.0000 C   0  0  0  0  0  0           0  0  0
    7.2646   -3.0713    0.0000 C   0  0  0  0  0  0           0  0  0
    7.2649   -2.3287    0.0000 C   0  0  0  0  0  0           0  0  0
    7.9092   -1.9577    0.0000 O   0  0  0  0  0  0           0  0  0
    6.6250   -1.9571    0.0000 N   0  0  0  0  0  0           0  0  0
    6.6253   -1.2145    0.0000 C   0  0  3  0  0  0           0  0  0
    5.9812   -0.8471    0.0000 C   0  0  0  0  0  0           0  0  0
    7.2655   -0.8477    0.0000 C   0  0  0  0  0  0           0  0  0
    6.1017   -1.7418    0.0000 C   0  0  0  0  0  0           0  0  0
    7.9082   -1.2160    0.0000 C   0  0  0  0  0  0           0  0  0
    8.5480   -0.8497    0.0000 C   0  0  0  0  0  0           0  0  0
    8.5487   -0.1064    0.0000 C   0  0  0  0  0  0           0  0  0
    7.9044    0.2650    0.0000 C   0  0  0  0  0  0           0  0  0
    7.2630   -0.1075    0.0000 C   0  0  0  0  0  0           0  0  0
    5.9859   -0.1048    0.0000 C   0  0  0  0  0  0           0  0  0
    5.3467    0.2667    0.0000 C   0  0  0  0  0  0           0  0  0
    4.7015   -0.1043    0.0000 C   0  0  0  0  0  0           0  0  0
    4.7035   -0.8507    0.0000 C   0  0  0  0  0  0           0  0  0
    5.3474   -1.2147    0.0000 C   0  0  0  0  0  0           0  0  0
    5.3845   -1.5433    0.0000 C   0  0  0  0  0  0           0  0  0
    4.8570   -2.0657    0.0000 C   0  0  0  0  0  0           0  0  0
    5.0507   -2.7842    0.0000 C   0  0  0  0  0  0           0  0  0
    5.7725   -2.9774    0.0000 C   0  0  0  0  0  0           0  0  0
    6.2927   -2.4494    0.0000 C   0  0  0  0  0  0           0  0  0
 26 24  1  0     0  0
  3  1  1  0     0  0
 24 25  2  0     0  0
 24 11  1  0     0  0
  5  2  2  0     0  0
 26 27  1  1     0  0
 10  2  1  0     0  0
  4  3  2  0     0  0
 27 28  1  0     0  0
  6  3  1  0     0  0
 28 29  1  0     0  0
  5  4  1  0     0  0
 29 30  2  0     0  0
  7  4  1  0     0  0
 29 31  1  0     0  0
  9  6  2  0     0  0
 31 32  1  0     0  0
  8  7  2  0     0  0
 32 33  1  0     0  0
 12 11  1  0     0  0
 32 34  1  0     0  0
 13 12  2  0     0  0
 32 35  1  0     0  0
 14 12  1  0     0  0
 34 36  2  0     0  0
 15 13  1  0     0  0
 36 37  1  0     0  0
 18 13  1  0     0  0
 37 38  2  0     0  0
 16 14  2  0     0  0
 38 39  1  0     0  0
 17 15  2  0     0  0
 39 40  2  0     0  0
 40 34  1  0     0  0
 17 16  1  0     0  0
 33 41  2  0     0  0
 20 16  1  0     0  0
 41 42  1  0     0  0
 19 18  1  0     0  0
 42 43  2  0     0  0
 21 20  1  0     0  0
 43 44  1  0     0  0
  9  8  1  0     0  0
 44 45  2  0     0  0
 45 33  1  0     0  0
 10 22  1  0     0  0
 35 46  2  0     0  0
 46 47  1  0     0  0
 10 23  2  0     0  0
 47 48  2  0     0  0
 22 26  1  0     0  0
 48 49  1  0     0  0
  2  1  1  0     0  0
 49 50  2  0     0  0
 50 35  1  0     0  0
M  END
>  <prID>
578

>  <IDDB>
167956

>  <pIC50_HIV_Integrase>
5.387216143

>  <Q>
-1.351559496

>  <Activity_Integrase>
Inactive_Integrase

NA
NA
NA
NA
$$$$

  Accelrys05311914322D 1   1.00000     0.00000     0

 53 58  0     0  0            999 V2000
   -0.6800   -5.1774    0.0000 N   0  0  0  0  0  0           0  0  0
   -1.5338   -5.6669    0.0000 C   0  0  0  0  0  0           0  0  0
   -2.3685   -5.1771    0.0000 C   0  0  0  0  0  0           0  0  0
   -0.6693   -4.1939    0.0000 C   0  0  0  0  0  0           0  0  0
   -1.5275   -6.6141    0.0000 C   0  0  0  0  0  0           0  0  0
   -3.1969   -5.6345    0.0000 C   0  0  0  0  0  0           0  0  0
   -2.3536   -4.1936    0.0000 C   0  0  0  0  0  0           0  0  0
   -1.5040   -3.7083    0.0000 C   0  0  0  0  0  0           0  0  0
   -3.2054   -6.5999    0.0000 C   0  0  0  0  0  0           0  0  0
   -2.3665   -7.0938    0.0000 C   0  0  0  0  0  0           0  0  0
   -3.1884   -3.7080    0.0000 O   0  0  0  0  0  0           0  0  0
   -0.6779   -7.0941    0.0000 O   0  0  0  0  0  0           0  0  0
    0.0461   -3.7830    0.0000 C   0  0  0  0  0  0           0  0  0
    2.7643   -3.7861    0.0000 N   0  0  0  0  0  0           0  0  0
    3.6615   -4.3193    0.0000 C   0  0  0  0  0  0           0  0  0
    4.5946   -3.8104    0.0000 C   0  0  0  0  0  0           0  0  0
    3.6341   -5.3773    0.0000 C   0  0  0  0  0  0           0  0  0
    5.5047   -4.3595    0.0000 C   0  0  0  0  0  0           0  0  0
    4.5400   -5.9306    0.0000 C   0  0  0  0  0  0           0  0  0
    5.4773   -5.4217    0.0000 C   0  0  0  0  0  0           0  0  0
    4.6262   -2.7483    0.0000 O   0  0  0  0  0  0           0  0  0
    5.5952   -2.2674    0.0000 C   0  0  0  0  0  0           0  0  0
    4.5126   -6.9885    0.0000 O   0  0  0  0  0  0           0  0  0
    5.4386   -7.5331    0.0000 C   0  0  0  0  0  0           0  0  0
    0.7269   -4.1777    0.0000 N   0  0  0  0  0  0           0  0  0
    0.0480   -3.1079    0.0000 O   0  0  0  0  0  0           0  0  0
    2.0892   -4.1754    0.0000 C   0  0  0  0  0  0           0  0  0
    2.0905   -4.9546    0.0000 O   0  0  0  0  0  0           0  0  0
    1.4115   -3.7807    0.0000 C   0  0  2  0  0  0           0  0  0
    1.4119   -3.0381    0.0000 C   0  0  0  0  0  0           0  0  0
    2.0521   -2.6671    0.0000 C   0  0  0  0  0  0           0  0  0
    2.0524   -1.9245    0.0000 C   0  0  0  0  0  0           0  0  0
    2.6967   -1.5535    0.0000 O   0  0  0  0  0  0           0  0  0
    1.4125   -1.5530    0.0000 N   0  0  0  0  0  0           0  0  0
    1.4128   -0.8104    0.0000 C   0  0  3  0  0  0           0  0  0
    0.7687   -0.4430    0.0000 C   0  0  0  0  0  0           0  0  0
    2.0530   -0.4435    0.0000 C   0  0  0  0  0  0           0  0  0
    0.8892   -1.3377    0.0000 C   0  0  0  0  0  0           0  0  0
    2.6957   -0.8118    0.0000 C   0  0  0  0  0  0           0  0  0
    3.3355   -0.4456    0.0000 C   0  0  0  0  0  0           0  0  0
    3.3362    0.2978    0.0000 C   0  0  0  0  0  0           0  0  0
    2.6919    0.6692    0.0000 C   0  0  0  0  0  0           0  0  0
    2.0505    0.2967    0.0000 C   0  0  0  0  0  0           0  0  0
    0.7734    0.2994    0.0000 C   0  0  0  0  0  0           0  0  0
    0.1342    0.6709    0.0000 C   0  0  0  0  0  0           0  0  0
   -0.5110    0.2998    0.0000 C   0  0  0  0  0  0           0  0  0
   -0.5090   -0.4466    0.0000 C   0  0  0  0  0  0           0  0  0
    0.1349   -0.8106    0.0000 C   0  0  0  0  0  0           0  0  0
    0.1720   -1.1391    0.0000 C   0  0  0  0  0  0           0  0  0
   -0.3555   -1.6615    0.0000 C   0  0  0  0  0  0           0  0  0
   -0.1618   -2.3800    0.0000 C   0  0  0  0  0  0           0  0  0
    0.5600   -2.5732    0.0000 C   0  0  0  0  0  0           0  0  0
    1.0802   -2.0453    0.0000 C   0  0  0  0  0  0           0  0  0
 25 29  1  0     0  0
 29 27  1  0     0  0
  2  1  1  0     0  0
 27 28  2  0     0  0
 27 14  1  0     0  0
  4  1  2  0     0  0
 29 30  1  1     0  0
  3  2  2  0     0  0
  5  2  1  0     0  0
 30 31  1  0     0  0
  6  3  1  0     0  0
 31 32  1  0     0  0
  7  3  1  0     0  0
 32 33  2  0     0  0
  8  4  1  0     0  0
 32 34  1  0     0  0
 10  5  2  0     0  0
 34 35  1  0     0  0
 12  5  1  0     0  0
 35 36  1  0     0  0
  9  6  2  0     0  0
 35 37  1  0     0  0
  8  7  2  0     0  0
 35 38  1  0     0  0
 15 14  1  0     0  0
 37 39  2  0     0  0
 16 15  2  0     0  0
 39 40  1  0     0  0
 17 15  1  0     0  0
 40 41  2  0     0  0
 18 16  1  0     0  0
 41 42  1  0     0  0
 21 16  1  0     0  0
 42 43  2  0     0  0
 43 37  1  0     0  0
 19 17  2  0     0  0
 36 44  2  0     0  0
 20 18  2  0     0  0
 44 45  1  0     0  0
 20 19  1  0     0  0
 45 46  2  0     0  0
 23 19  1  0     0  0
 46 47  1  0     0  0
 22 21  1  0     0  0
 47 48  2  0     0  0
 48 36  1  0     0  0
 24 23  1  0     0  0
 38 49  2  0     0  0
 11  7  1  0     0  0
 49 50  1  0     0  0
 13 25  1  0     0  0
 50 51  2  0     0  0
 10  9  1  0     0  0
 51 52  1  0     0  0
 13 26  2  0     0  0
 52 53  2  0     0  0
 53 38  1  0     0  0
 13  4  1  0     0  0
M  END
>  <prID>
579

>  <IDDB>
167957

>  <pIC50_HIV_Integrase>
5.585026652

>  <Q>
-2.420326491

>  <Activity_Integrase>
Inactive_Integrase

NA
NA
NA
NA
$$$$

  Accelrys05311914322D 1   1.00000     0.00000     0

 53 59  0     0  0            999 V2000
    4.2224   -4.1856    0.0000 C   0  0  0  0  0  0           0  0  0
    3.4960   -3.7625    0.0000 C   0  0  0  0  0  0           0  0  0
    4.8419   -3.8288    0.0000 C   0  0  0  0  0  0           0  0  0
    7.1976   -3.8319    0.0000 N   0  0  0  0  0  0           0  0  0
    7.9740   -4.2943    0.0000 C   0  0  0  0  0  0           0  0  0
    5.4311   -4.1694    0.0000 N   0  0  0  0  0  0           0  0  0
    4.8438   -3.2412    0.0000 O   0  0  0  0  0  0           0  0  0
    6.6100   -4.1671    0.0000 C   0  0  0  0  0  0           0  0  0
    6.6113   -4.8421    0.0000 O   0  0  0  0  0  0           0  0  0
    6.0240   -3.8265    0.0000 C   0  0  2  0  0  0           0  0  0
    6.0244   -3.1839    0.0000 C   0  0  0  0  0  0           0  0  0
    6.5813   -2.8588    0.0000 C   0  0  0  0  0  0           0  0  0
    2.7706   -4.1800    0.0000 C   0  0  0  0  0  0           0  0  0
    1.8622   -5.1845    0.0000 N   0  0  0  0  0  0           0  0  0
    2.6782   -5.0117    0.0000 C   0  0  0  0  0  0           0  0  0
    1.4446   -4.4590    0.0000 C   0  0  0  0  0  0           0  0  0
    2.0062   -3.8415    0.0000 C   0  0  0  0  0  0           0  0  0
    1.7536   -3.0480    0.0000 C   0  0  0  0  0  0           0  0  0
    0.9399   -2.8707    0.0000 C   0  0  0  0  0  0           0  0  0
    0.3792   -3.4899    0.0000 C   0  0  0  0  0  0           0  0  0
    0.6352   -4.2807    0.0000 C   0  0  0  0  0  0           0  0  0
    7.1643   -3.1199    0.0000 C   0  0  0  0  0  0           0  0  0
    7.5918   -2.6400    0.0000 N   0  0  0  0  0  0           0  0  0
    7.2708   -2.0873    0.0000 C   0  0  0  0  0  0           0  0  0
    6.6432   -2.2216    0.0000 N   0  0  3  0  0  0           0  0  0
    8.7635   -3.8506    0.0000 C   0  0  0  0  0  0           0  0  0
    9.5439   -4.3129    0.0000 C   0  0  0  0  0  0           0  0  0
    9.5244   -5.2197    0.0000 C   0  0  0  0  0  0           0  0  0
   10.3038   -5.6819    0.0000 C   0  0  0  0  0  0           0  0  0
   11.0903   -5.2382    0.0000 C   0  0  0  0  0  0           0  0  0
   11.1002   -4.3267    0.0000 C   0  0  0  0  0  0           0  0  0
   10.3242   -3.8692    0.0000 C   0  0  0  0  0  0           0  0  0
   11.8926   -3.8813    0.0000 O   0  0  0  0  0  0           0  0  0
   11.8726   -5.6998    0.0000 O   0  0  0  0  0  0           0  0  0
    6.1642   -1.7943    0.0000 C   0  0  3  0  0  0           0  0  0
    5.9140   -1.2022    0.0000 C   0  0  0  0  0  0           0  0  0
    5.5547   -1.9954    0.0000 C   0  0  0  0  0  0           0  0  0
    6.7009   -1.4422    0.0000 C   0  0  0  0  0  0           0  0  0
    6.2999   -0.6914    0.0000 C   0  0  0  0  0  0           0  0  0
    6.0490   -0.1013    0.0000 C   0  0  0  0  0  0           0  0  0
    5.4113   -0.0232    0.0000 C   0  0  0  0  0  0           0  0  0
    5.0251   -0.5401    0.0000 C   0  0  0  0  0  0           0  0  0
    5.2780   -1.1282    0.0000 C   0  0  0  0  0  0           0  0  0
    5.0789   -1.5676    0.0000 C   0  0  0  0  0  0           0  0  0
    4.4699   -1.7683    0.0000 C   0  0  0  0  0  0           0  0  0
    4.3388   -2.3973    0.0000 C   0  0  0  0  0  0           0  0  0
    4.8217   -2.8253    0.0000 C   0  0  0  0  0  0           0  0  0
    5.4288   -2.6223    0.0000 C   0  0  0  0  0  0           0  0  0
    7.2732   -1.7337    0.0000 C   0  0  0  0  0  0           0  0  0
    7.8096   -1.3822    0.0000 C   0  0  0  0  0  0           0  0  0
    7.7734   -0.7407    0.0000 C   0  0  0  0  0  0           0  0  0
    7.1962   -0.4523    0.0000 C   0  0  0  0  0  0           0  0  0
    6.6623   -0.8055    0.0000 C   0  0  0  0  0  0           0  0  0
  2 13  1  0     0  0
  5 26  1  0     0  0
 13 17  1  0     0  0
 26 27  1  0     0  0
  5  4  1  0     0  0
 27 28  2  0     0  0
 10  8  1  0     0  0
 28 29  1  0     0  0
 16 14  1  0     0  0
 29 30  2  0     0  0
 14 15  1  0     0  0
 30 31  1  0     0  0
 15 13  2  0     0  0
 31 32  2  0     0  0
 32 27  1  0     0  0
  2  1  2  0     0  0
 31 33  1  0     0  0
  8  9  2  0     0  0
 30 34  1  0     0  0
 25 35  1  0     0  0
 16 17  2  0     0  0
 35 36  1  0     0  0
  8  4  1  0     0  0
 35 37  1  0     0  0
 17 18  1  0     0  0
 35 38  1  0     0  0
  3  6  1  0     0  0
 36 39  2  0     0  0
 18 19  2  0     0  0
 39 40  1  0     0  0
 10 11  1  1     0  0
 40 41  2  0     0  0
 19 20  1  0     0  0
 41 42  1  0     0  0
 20 21  2  0     0  0
 42 43  2  0     0  0
 43 36  1  0     0  0
 21 16  1  0     0  0
 37 44  2  0     0  0
 12 22  2  0     0  0
 44 45  1  0     0  0
  3  7  2  0     0  0
 45 46  2  0     0  0
 11 12  1  0     0  0
 46 47  1  0     0  0
  3  1  1  0     0  0
 47 48  2  0     0  0
 48 37  1  0     0  0
  6 10  1  0     0  0
 38 49  2  0     0  0
 22 23  1  0     0  0
 49 50  1  0     0  0
 23 24  2  0     0  0
 50 51  2  0     0  0
 24 25  1  0     0  0
 51 52  1  0     0  0
 25 12  1  0     0  0
 52 53  2  0     0  0
 53 38  1  0     0  0
M  END
>  <prID>
580

>  <IDDB>
167958

>  <pIC50_HIV_Integrase>
5.698970004

>  <Q>
-0.689203542

>  <Activity_Integrase>
Inactive_Integrase

NA
NA
NA
NA
$$$$

  Accelrys05311914322D 1   1.00000     0.00000     0

 47 51  0     0  0            999 V2000
    7.6024   -7.6672    0.0000 N   0  0  0  0  0  0           0  0  0
    8.6610   -6.3392    0.0000 S   0  0  0  0  0  0           0  0  0
    7.6435   -6.6181    0.0000 C   0  0  0  0  0  0           0  0  0
    8.5816   -8.0464    0.0000 C   0  0  0  0  0  0           0  0  0
    9.2343   -7.2120    0.0000 C   0  0  0  0  0  0           0  0  0
    6.8204   -5.9579    0.0000 N   0  0  0  0  0  0           0  0  0
    3.2471   -6.3847    0.0000 C   0  0  0  0  0  0           0  0  0
    4.1961   -5.9538    0.0000 C   0  0  0  0  0  0           0  0  0
    4.8519   -6.3360    0.0000 N   0  0  0  0  0  0           0  0  0
    4.1980   -5.3038    0.0000 O   0  0  0  0  0  0           0  0  0
    6.1683   -6.3337    0.0000 C   0  0  0  0  0  0           0  0  0
    6.1696   -7.0879    0.0000 O   0  0  0  0  0  0           0  0  0
    5.5157   -5.9515    0.0000 C   0  0  2  0  0  0           0  0  0
    5.5160   -5.2340    0.0000 C   0  0  0  0  0  0           0  0  0
    6.1354   -4.8754    0.0000 C   0  0  0  0  0  0           0  0  0
    6.1357   -4.1578    0.0000 C   0  0  0  0  0  0           0  0  0
    6.7551   -3.7993    0.0000 O   0  0  0  0  0  0           0  0  0
    5.5167   -3.7988    0.0000 N   0  0  0  0  0  0           0  0  0
    5.5170   -3.0854    0.0000 C   0  0  0  0  0  0           0  0  0
    2.3994   -5.7782    0.0000 C   0  0  0  0  0  0           0  0  0
    1.4503   -6.2091    0.0000 C   0  0  0  0  0  0           0  0  0
    0.6046   -5.5992    0.0000 C   0  0  0  0  0  0           0  0  0
   -0.3438   -6.0292    0.0000 C   0  0  0  0  0  0           0  0  0
   -0.4459   -7.0676    0.0000 C   0  0  0  0  0  0           0  0  0
    0.4081   -7.6745    0.0000 C   0  0  0  0  0  0           0  0  0
    1.3531   -7.2411    0.0000 C   0  0  0  0  0  0           0  0  0
   -1.1904   -5.4229    0.0000 O   0  0  0  0  0  0           0  0  0
   -1.3954   -7.5002    0.0000 O   0  0  0  0  0  0           0  0  0
    6.1350   -2.7289    0.0000 C   0  0  3  0  0  0           0  0  0
    6.1353   -2.0155    0.0000 C   0  0  0  0  0  0           0  0  0
    6.8360   -2.7151    0.0000 C   0  0  0  0  0  0           0  0  0
    5.4459   -2.5440    0.0000 C   0  0  0  0  0  0           0  0  0
    6.7539   -1.6634    0.0000 C   0  0  0  0  0  0           0  0  0
    6.7545   -0.9507    0.0000 C   0  0  0  0  0  0           0  0  0
    6.1363   -0.5930    0.0000 C   0  0  0  0  0  0           0  0  0
    5.5163   -0.9533    0.0000 C   0  0  0  0  0  0           0  0  0
    5.5187   -1.6648    0.0000 C   0  0  0  0  0  0           0  0  0
    5.2643   -1.8552    0.0000 C   0  0  0  0  0  0           0  0  0
    4.5760   -1.6701    0.0000 C   0  0  0  0  0  0           0  0  0
    4.0705   -2.1746    0.0000 C   0  0  0  0  0  0           0  0  0
    4.2580   -2.8668    0.0000 C   0  0  0  0  0  0           0  0  0
    4.9459   -3.0486    0.0000 C   0  0  0  0  0  0           0  0  0
    7.1939   -3.3165    0.0000 C   0  0  0  0  0  0           0  0  0
    7.8942   -3.3030    0.0000 C   0  0  0  0  0  0           0  0  0
    8.2335   -2.6885    0.0000 C   0  0  0  0  0  0           0  0  0
    7.8671   -2.0864    0.0000 C   0  0  0  0  0  0           0  0  0
    7.1680   -2.1029    0.0000 C   0  0  0  0  0  0           0  0  0
 23 24  2  0     0  0
 11 12  2  0     0  0
 24 25  1  0     0  0
  5  4  2  0     0  0
 25 26  2  0     0  0
 26 21  1  0     0  0
 13 14  1  1     0  0
 23 27  1  0     0  0
 24 28  1  0     0  0
  3  1  2  0     0  0
 19 29  1  0     0  0
 14 15  1  0     0  0
 29 30  1  0     0  0
  8  7  1  0     0  0
 29 31  1  0     0  0
 15 16  1  0     0  0
 29 32  1  0     0  0
  4  1  1  0     0  0
 30 33  2  0     0  0
 16 17  2  0     0  0
 33 34  1  0     0  0
  8  9  1  0     0  0
 34 35  2  0     0  0
 16 18  1  0     0  0
 35 36  1  0     0  0
  3  2  1  0     0  0
 36 37  2  0     0  0
 37 30  1  0     0  0
 18 19  1  0     0  0
 32 38  2  0     0  0
  8 10  2  0     0  0
 38 39  1  0     0  0
  7 20  2  0     0  0
 39 40  2  0     0  0
  9 13  1  0     0  0
 40 41  1  0     0  0
 20 21  1  0     0  0
 41 42  2  0     0  0
 42 32  1  0     0  0
 11  6  1  0     0  0
  5  2  1  0     0  0
 31 43  2  0     0  0
 21 22  2  0     0  0
 43 44  1  0     0  0
 13 11  1  0     0  0
 44 45  2  0     0  0
 22 23  1  0     0  0
 45 46  1  0     0  0
  6  3  1  0     0  0
 46 47  2  0     0  0
 47 31  1  0     0  0
M  END
>  <prID>
581

>  <IDDB>
167962

>  <pIC50_HIV_Integrase>
6.078833949

>  <Q>
-1.050068127

>  <Activity_Integrase>
Active_Integrase

NA
NA
NA
NA
$$$$

  Accelrys05311914332D 1   1.00000     0.00000     0

 36 39  0     0  0            999 V2000
    4.1174   -6.9913    0.0000 N   0  0  3  0  0  0           0  0  0
    4.9762   -7.3639    0.0000 C   0  0  0  0  0  0           0  0  0
    3.4639   -7.6628    0.0000 C   0  0  0  0  0  0           0  0  0
    3.9459   -8.5022    0.0000 C   0  0  0  0  0  0           0  0  0
    4.8663   -8.2942    0.0000 C   0  0  0  0  0  0           0  0  0
    2.5310   -7.6808    0.0000 C   0  0  0  0  0  0           0  0  0
    3.4632   -9.2969    0.0000 C   0  0  0  0  0  0           0  0  0
    2.5470   -9.3028    0.0000 C   0  0  0  0  0  0           0  0  0
    2.0649   -8.4676    0.0000 C   0  0  0  0  0  0           0  0  0
    3.9194   -6.0551    0.0000 C   0  0  0  0  0  0           0  0  0
    2.9985   -6.0143    0.0000 C   0  0  0  0  0  0           0  0  0
    2.5476   -5.1865    0.0000 C   0  0  0  0  0  0           0  0  0
    2.5051   -6.7951    0.0000 C   0  0  0  0  0  0           0  0  0
    1.6206   -5.1689    0.0000 C   0  0  0  0  0  0           0  0  0
    1.5781   -6.7775    0.0000 C   0  0  0  0  0  0           0  0  0
    1.1506   -5.9558    0.0000 C   0  0  0  0  0  0           0  0  0
    0.2003   -5.9280    0.0000 F   0  0  0  0  0  0           0  0  0
    5.8211   -6.9788    0.0000 C   0  0  0  0  0  0           0  0  0
    8.1643   -6.9820    0.0000 N   0  0  0  0  0  0           0  0  0
    6.4061   -7.3193    0.0000 N   0  0  0  0  0  0           0  0  0
    5.8230   -6.3996    0.0000 O   0  0  0  0  0  0           0  0  0
    7.5808   -7.3171    0.0000 C   0  0  0  0  0  0           0  0  0
    7.5821   -7.9879    0.0000 O   0  0  0  0  0  0           0  0  0
    6.9990   -6.9765    0.0000 C   0  0  2  0  0  0           0  0  0
    6.9994   -6.3381    0.0000 C   0  0  0  0  0  0           0  0  0
    8.7463   -7.3197    0.0000 C   0  0  0  0  0  0           0  0  0
    9.3297   -6.9846    0.0000 C   0  0  0  0  0  0           0  0  0
    7.5524   -6.0192    0.0000 C   0  0  0  0  0  0           0  0  0
    7.5527   -5.3808    0.0000 C   0  0  0  0  0  0           0  0  0
    8.1058   -5.0618    0.0000 O   0  0  0  0  0  0           0  0  0
    7.0000   -5.0613    0.0000 O   0  0  0  0  0  0           0  0  0
    9.9102   -7.3246    0.0000 C   0  0  0  0  0  0           0  0  0
   10.4933   -6.9901    0.0000 C   0  0  0  0  0  0           0  0  0
   10.4951   -6.3165    0.0000 C   0  0  0  0  0  0           0  0  0
    9.9091   -5.9789    0.0000 C   0  0  0  0  0  0           0  0  0
    9.3284   -6.3154    0.0000 C   0  0  0  0  0  0           0  0  0
 17 16  1  0     0  0
 18  2  1  0     0  0
  2  1  1  0     0  0
  3  1  1  0     0  0
 18 20  1  0     0  0
 10  1  1  0     0  0
 18 21  2  0     0  0
 20 24  1  0     0  0
  5  2  2  0     0  0
 24 22  1  0     0  0
  4  3  2  0     0  0
 22 23  2  0     0  0
 22 19  1  0     0  0
  6  3  1  0     0  0
 24 25  1  1     0  0
  5  4  1  0     0  0
  7  4  1  0     0  0
 19 26  1  0     0  0
  9  6  2  0     0  0
 26 27  1  0     0  0
  8  7  2  0     0  0
 25 28  1  0     0  0
  9  8  1  0     0  0
 28 29  1  0     0  0
 11 10  1  0     0  0
 29 30  2  0     0  0
 12 11  2  0     0  0
 29 31  1  0     0  0
 13 11  1  0     0  0
 27 32  2  0     0  0
 14 12  1  0     0  0
 32 33  1  0     0  0
 15 13  2  0     0  0
 33 34  2  0     0  0
 16 14  2  0     0  0
 34 35  1  0     0  0
 16 15  1  0     0  0
 35 36  2  0     0  0
 36 27  1  0     0  0
M  END
>  <prID>
582

>  <IDDB>
167966

>  <pIC50_HIV_Integrase>
5.033858267

>  <Q>
-3.823585405

>  <Activity_Integrase>
Inactive_Integrase

NA
NA
NA
NA
$$$$

  Accelrys05311914322D 1   1.00000     0.00000     0

 40 43  0     0  0            999 V2000
    4.4757   -6.5038    0.0000 N   0  0  3  0  0  0           0  0  0
    5.3596   -6.8847    0.0000 C   0  0  0  0  0  0           0  0  0
    3.8014   -7.1962    0.0000 C   0  0  0  0  0  0           0  0  0
    4.2959   -8.0605    0.0000 C   0  0  0  0  0  0           0  0  0
    5.2454   -7.8442    0.0000 C   0  0  0  0  0  0           0  0  0
    2.8393   -7.2141    0.0000 C   0  0  0  0  0  0           0  0  0
    3.8007   -8.8802    0.0000 C   0  0  0  0  0  0           0  0  0
    2.8553   -8.8862    0.0000 C   0  0  0  0  0  0           0  0  0
    2.3566   -8.0260    0.0000 C   0  0  0  0  0  0           0  0  0
    4.2694   -5.5385    0.0000 C   0  0  0  0  0  0           0  0  0
    3.3193   -5.4934    0.0000 C   0  0  0  0  0  0           0  0  0
    2.8560   -4.6407    0.0000 C   0  0  0  0  0  0           0  0  0
    2.8135   -6.2993    0.0000 C   0  0  0  0  0  0           0  0  0
    1.8998   -4.6231    0.0000 C   0  0  0  0  0  0           0  0  0
    1.8573   -6.2817    0.0000 C   0  0  0  0  0  0           0  0  0
    1.4172   -5.4350    0.0000 C   0  0  0  0  0  0           0  0  0
    0.4336   -5.4072    0.0000 F   0  0  0  0  0  0           0  0  0
    6.2336   -6.4913    0.0000 C   0  0  0  0  0  0           0  0  0
    8.6476   -6.4945    0.0000 N   0  0  0  0  0  0           0  0  0
    6.8352   -6.8402    0.0000 N   0  0  0  0  0  0           0  0  0
    6.2355   -5.8913    0.0000 O   0  0  0  0  0  0           0  0  0
    8.0475   -6.8379    0.0000 C   0  0  0  0  0  0           0  0  0
    8.0488   -7.5296    0.0000 O   0  0  0  0  0  0           0  0  0
    7.4449   -6.4890    0.0000 C   0  0  2  0  0  0           0  0  0
    7.4452   -5.8298    0.0000 C   0  0  0  0  0  0           0  0  0
    9.2504   -6.8405    0.0000 C   0  0  0  0  0  0           0  0  0
    9.8506   -6.4971    0.0000 C   0  0  0  0  0  0           0  0  0
    8.0191   -5.4983    0.0000 O   0  0  0  0  0  0           0  0  0
   10.4481   -6.8451    0.0000 C   0  0  0  0  0  0           0  0  0
   10.4412   -7.5346    0.0000 C   0  0  0  0  0  0           0  0  0
   11.0380   -7.8825    0.0000 C   0  0  0  0  0  0           0  0  0
   11.6390   -7.5390    0.0000 C   0  0  0  0  0  0           0  0  0
   11.6394   -6.8440    0.0000 C   0  0  0  0  0  0           0  0  0
   11.0421   -6.4992    0.0000 C   0  0  0  0  0  0           0  0  0
   12.2415   -6.4966    0.0000 O   0  0  0  0  0  0           0  0  0
   12.2376   -7.8866    0.0000 O   0  0  0  0  0  0           0  0  0
    8.0190   -4.8356    0.0000 C   0  0  3  0  0  0           0  0  0
    8.5928   -4.5042    0.0000 C   0  0  0  0  0  0           0  0  0
    7.4450   -4.5044    0.0000 C   0  0  0  0  0  0           0  0  0
    8.0175   -4.1237    0.0000 C   0  0  0  0  0  0           0  0  0
  3  1  1  0     0  0
 18 20  1  0     0  0
 10  1  1  0     0  0
 18 21  2  0     0  0
 20 24  1  0     0  0
  5  2  2  0     0  0
 24 22  1  0     0  0
  4  3  2  0     0  0
 22 23  2  0     0  0
 22 19  1  0     0  0
  6  3  1  0     0  0
 24 25  1  1     0  0
  5  4  1  0     0  0
  7  4  1  0     0  0
 19 26  1  0     0  0
  9  6  2  0     0  0
 26 27  1  0     0  0
  8  7  2  0     0  0
 25 28  1  0     0  0
  9  8  1  0     0  0
 27 29  1  0     0  0
 11 10  1  0     0  0
 29 30  2  0     0  0
 12 11  2  0     0  0
 30 31  1  0     0  0
 13 11  1  0     0  0
 31 32  2  0     0  0
 14 12  1  0     0  0
 32 33  1  0     0  0
 15 13  2  0     0  0
 33 34  2  0     0  0
 34 29  1  0     0  0
 16 14  2  0     0  0
 33 35  1  0     0  0
 16 15  1  0     0  0
 32 36  1  0     0  0
 17 16  1  0     0  0
 28 37  1  0     0  0
 37 38  1  0     0  0
 18  2  1  0     0  0
 37 39  1  0     0  0
  2  1  1  0     0  0
 37 40  1  0     0  0
M  END
>  <prID>
583

>  <IDDB>
167967

>  <pIC50_HIV_Integrase>
5.15490196

>  <Q>
-5.30915758

>  <Activity_Integrase>
Inactive_Integrase

NA
NA
NA
NA
$$$$

  Accelrys05311914322D 1   1.00000     0.00000     0

 47 50  0     0  0            999 V2000
    6.5702   -2.9908    0.0000 C   0  0  0  0  0  0           0  0  0
    7.3878   -2.4913    0.0000 C   0  0  0  0  0  0           0  0  0
    9.8018   -2.4945    0.0000 N   0  0  0  0  0  0           0  0  0
    7.9894   -2.8402    0.0000 N   0  0  0  0  0  0           0  0  0
    7.3896   -1.8913    0.0000 O   0  0  0  0  0  0           0  0  0
    9.2017   -2.8379    0.0000 C   0  0  0  0  0  0           0  0  0
    9.2030   -3.5296    0.0000 O   0  0  0  0  0  0           0  0  0
    8.5990   -2.4890    0.0000 C   0  0  2  0  0  0           0  0  0
    8.5994   -1.8298    0.0000 C   0  0  0  0  0  0           0  0  0
   10.4046   -2.8405    0.0000 C   0  0  0  0  0  0           0  0  0
   11.0047   -2.4971    0.0000 C   0  0  0  0  0  0           0  0  0
    9.1732   -1.4983    0.0000 O   0  0  0  0  0  0           0  0  0
   11.6022   -2.8451    0.0000 C   0  0  0  0  0  0           0  0  0
   11.5954   -3.5346    0.0000 C   0  0  0  0  0  0           0  0  0
   12.1922   -3.8825    0.0000 C   0  0  0  0  0  0           0  0  0
   12.7932   -3.5390    0.0000 C   0  0  0  0  0  0           0  0  0
   12.7936   -2.8440    0.0000 C   0  0  0  0  0  0           0  0  0
   12.1963   -2.4992    0.0000 C   0  0  0  0  0  0           0  0  0
   13.3956   -2.4966    0.0000 O   0  0  0  0  0  0           0  0  0
   13.3918   -3.8866    0.0000 O   0  0  0  0  0  0           0  0  0
    9.1731   -0.8356    0.0000 C   0  0  3  0  0  0           0  0  0
    9.7470   -0.5042    0.0000 C   0  0  0  0  0  0           0  0  0
    8.5992   -0.5044    0.0000 C   0  0  0  0  0  0           0  0  0
    9.1716   -0.1237    0.0000 C   0  0  0  0  0  0           0  0  0
    5.7311   -2.5282    0.0000 C   0  0  0  0  0  0           0  0  0
    4.9136   -3.0269    0.0000 C   0  0  0  0  0  0           0  0  0
    4.9367   -3.9862    0.0000 C   0  0  0  0  0  0           0  0  0
    5.7842   -4.4445    0.0000 C   0  0  0  0  0  0           0  0  0
    6.5982   -3.9431    0.0000 C   0  0  0  0  0  0           0  0  0
    4.1184   -4.4873    0.0000 O   0  0  0  0  0  0           0  0  0
    4.0730   -2.5682    0.0000 O   0  0  0  0  0  0           0  0  0
    4.1433   -5.4465    0.0000 C   0  0  0  0  0  0           0  0  0
    3.3251   -5.9477    0.0000 C   0  0  0  0  0  0           0  0  0
    2.4843   -5.4872    0.0000 C   0  0  0  0  0  0           0  0  0
    1.6666   -5.9875    0.0000 C   0  0  0  0  0  0           0  0  0
    1.6910   -6.9478    0.0000 C   0  0  0  0  0  0           0  0  0
    2.5399   -7.4055    0.0000 C   0  0  0  0  0  0           0  0  0
    3.3542   -6.9025    0.0000 C   0  0  0  0  0  0           0  0  0
    0.8725   -7.4505    0.0000 F   0  0  0  0  0  0           0  0  0
    3.2555   -3.0669    0.0000 C   0  0  0  0  0  0           0  0  0
    2.4148   -2.6082    0.0000 C   0  0  0  0  0  0           0  0  0
    2.3977   -1.6542    0.0000 C   0  0  0  0  0  0           0  0  0
    1.5581   -1.1956    0.0000 C   0  0  0  0  0  0           0  0  0
    0.7394   -1.6944    0.0000 C   0  0  0  0  0  0           0  0  0
    0.7657   -2.6566    0.0000 C   0  0  0  0  0  0           0  0  0
    1.6059   -3.1109    0.0000 C   0  0  0  0  0  0           0  0  0
   -0.1027   -1.2364    0.0000 F   0  0  0  0  0  0           0  0  0
  9 12  1  0     0  0
 21 24  1  0     0  0
  2  4  1  0     0  0
  1 25  2  0     0  0
 11 13  1  0     0  0
 25 26  1  0     0  0
  6  7  2  0     0  0
 26 27  2  0     0  0
 13 14  2  0     0  0
 27 28  1  0     0  0
  6  3  1  0     0  0
 28 29  2  0     0  0
 29  1  1  0     0  0
 14 15  1  0     0  0
 27 30  1  0     0  0
 26 31  1  0     0  0
 15 16  2  0     0  0
 30 32  1  0     0  0
  8  9  1  1     0  0
 32 33  1  0     0  0
 16 17  1  0     0  0
 33 34  2  0     0  0
  2  5  2  0     0  0
 34 35  1  0     0  0
 17 18  2  0     0  0
 35 36  2  0     0  0
 18 13  1  0     0  0
 36 37  1  0     0  0
  4  8  1  0     0  0
 37 38  2  0     0  0
 38 33  1  0     0  0
 17 19  1  0     0  0
 36 39  1  0     0  0
  3 10  1  0     0  0
 31 40  1  0     0  0
 16 20  1  0     0  0
 40 41  1  0     0  0
  2  1  1  0     0  0
 41 42  2  0     0  0
 12 21  1  0     0  0
 42 43  1  0     0  0
 10 11  1  0     0  0
 43 44  2  0     0  0
 21 22  1  0     0  0
 44 45  1  0     0  0
  8  6  1  0     0  0
 45 46  2  0     0  0
 46 41  1  0     0  0
 21 23  1  0     0  0
 44 47  1  0     0  0
M  END
>  <prID>
584

>  <IDDB>
167969

>  <pIC50_HIV_Integrase>
5.537602002

>  <Q>
-8.03656937

>  <Activity_Integrase>
Inactive_Integrase

NA
NA
NA
NA
$$$$

  Accelrys05311914322D 1   1.00000     0.00000     0

 43 46  0     0  0            999 V2000
    6.9161   -2.9116    0.0000 C   0  0  0  0  0  0           0  0  0
    7.6878   -2.4413    0.0000 C   0  0  0  0  0  0           0  0  0
    8.2602   -2.7693    0.0000 N   0  0  0  0  0  0           0  0  0
    7.6896   -1.8704    0.0000 O   0  0  0  0  0  0           0  0  0
    6.1164   -2.4783    0.0000 C   0  0  0  0  0  0           0  0  0
    5.3446   -2.9486    0.0000 C   0  0  0  0  0  0           0  0  0
    4.5518   -2.5188    0.0000 C   0  0  0  0  0  0           0  0  0
    3.7764   -2.9883    0.0000 C   0  0  0  0  0  0           0  0  0
    3.7997   -3.8971    0.0000 C   0  0  0  0  0  0           0  0  0
    4.6010   -4.3301    0.0000 C   0  0  0  0  0  0           0  0  0
    5.3729   -3.8538    0.0000 C   0  0  0  0  0  0           0  0  0
    2.9819   -2.5550    0.0000 O   0  0  0  0  0  0           0  0  0
    3.0236   -4.3732    0.0000 O   0  0  0  0  0  0           0  0  0
    2.9586   -1.6481    0.0000 C   0  0  0  0  0  0           0  0  0
    3.0486   -5.2819    0.0000 C   0  0  0  0  0  0           0  0  0
    2.2725   -5.7580    0.0000 C   0  0  0  0  0  0           0  0  0
    2.1641   -1.2107    0.0000 C   0  0  0  0  0  0           0  0  0
    2.1460   -0.3051    0.0000 C   0  0  0  0  0  0           0  0  0
    1.3483    0.1281    0.0000 C   0  0  0  0  0  0           0  0  0
    0.5760   -0.3456    0.0000 C   0  0  0  0  0  0           0  0  0
    0.5983   -1.2573    0.0000 C   0  0  0  0  0  0           0  0  0
    1.3965   -1.6904    0.0000 C   0  0  0  0  0  0           0  0  0
    1.4766   -5.3182    0.0000 C   0  0  0  0  0  0           0  0  0
    0.7052   -5.7935    0.0000 C   0  0  0  0  0  0           0  0  0
    0.7256   -6.7033    0.0000 C   0  0  0  0  0  0           0  0  0
    1.5327   -7.1356    0.0000 C   0  0  0  0  0  0           0  0  0
    2.3006   -6.6618    0.0000 C   0  0  0  0  0  0           0  0  0
   -0.2242    0.0871    0.0000 F   0  0  0  0  0  0           0  0  0
   -0.0465   -7.1768    0.0000 F   0  0  0  0  0  0           0  0  0
    8.8339   -2.4436    0.0000 C   0  0  0  0  0  0           0  0  0
    9.4022   -2.7716    0.0000 C   0  0  0  0  0  0           0  0  0
    9.4023   -3.4277    0.0000 O   0  0  0  0  0  0           0  0  0
    9.9704   -2.4434    0.0000 N   0  0  0  0  0  0           0  0  0
   10.5386   -2.7714    0.0000 C   0  0  0  0  0  0           0  0  0
   11.1068   -2.4433    0.0000 C   0  0  0  0  0  0           0  0  0
   11.6751   -2.7712    0.0000 C   0  0  0  0  0  0           0  0  0
   11.6729   -3.4279    0.0000 C   0  0  0  0  0  0           0  0  0
   12.2405   -3.7558    0.0000 C   0  0  0  0  0  0           0  0  0
   12.8094   -3.4276    0.0000 C   0  0  0  0  0  0           0  0  0
   12.8072   -2.7681    0.0000 C   0  0  0  0  0  0           0  0  0
   12.2392   -2.4432    0.0000 C   0  0  0  0  0  0           0  0  0
   13.3772   -2.4363    0.0000 O   0  0  0  0  0  0           0  0  0
   13.3787   -3.7552    0.0000 O   0  0  0  0  0  0           0  0  0
 10 11  2  0     0  0
 21 22  2  0     0  0
 22 17  1  0     0  0
 11  6  1  0     0  0
 16 23  2  0     0  0
  5  6  1  0     0  0
 23 24  1  0     0  0
  8 12  1  0     0  0
 24 25  2  0     0  0
  2  1  1  0     0  0
 25 26  1  0     0  0
  9 13  1  0     0  0
 26 27  2  0     0  0
 27 16  1  0     0  0
  6  7  2  0     0  0
 20 28  1  0     0  0
 12 14  1  0     0  0
 25 29  1  0     0  0
  2  4  2  0     0  0
  3 30  1  0     0  0
 13 15  1  0     0  0
 30 31  1  0     0  0
  7  8  1  0     0  0
 31 32  2  0     0  0
 15 16  1  0     0  0
 31 33  1  0     0  0
 33 34  1  0     0  0
 14 17  1  0     0  0
 34 35  1  0     0  0
  8  9  2  0     0  0
 35 36  1  0     0  0
 17 18  2  0     0  0
 36 37  2  0     0  0
  1  5  2  0     0  0
 37 38  1  0     0  0
 18 19  1  0     0  0
 38 39  2  0     0  0
  9 10  1  0     0  0
 39 40  1  0     0  0
 19 20  2  0     0  0
 40 41  2  0     0  0
 41 36  1  0     0  0
  2  3  1  0     0  0
 40 42  1  0     0  0
 20 21  1  0     0  0
 39 43  1  0     0  0
M  END
>  <prID>
585

>  <IDDB>
167972

>  <pIC50_HIV_Integrase>
5.585026652

>  <Q>
-6.665254239

>  <Activity_Integrase>
Inactive_Integrase

NA
NA
NA
NA
$$$$

  Accelrys05311914322D 1   1.00000     0.00000     0

 57 63  0     0  0            999 V2000
    2.8589   -5.0758    0.0000 N   0  0  3  0  0  0           0  0  0
    3.8143   -5.5112    0.0000 C   0  0  0  0  0  0           0  0  0
    2.1130   -5.8175    0.0000 C   0  0  0  0  0  0           0  0  0
    2.6366   -6.7663    0.0000 C   0  0  0  0  0  0           0  0  0
    3.6734   -6.5517    0.0000 C   0  0  0  0  0  0           0  0  0
    1.0674   -5.8169    0.0000 C   0  0  0  0  0  0           0  0  0
    2.0797   -7.6513    0.0000 C   0  0  0  0  0  0           0  0  0
    1.0553   -7.6390    0.0000 C   0  0  0  0  0  0           0  0  0
    0.5316   -6.6902    0.0000 C   0  0  0  0  0  0           0  0  0
    2.6587   -4.0234    0.0000 C   0  0  0  0  0  0           0  0  0
    1.6255   -3.9738    0.0000 C   0  0  0  0  0  0           0  0  0
    1.1245   -3.0439    0.0000 C   0  0  0  0  0  0           0  0  0
    1.0700   -4.8481    0.0000 C   0  0  0  0  0  0           0  0  0
    0.0851   -3.0176    0.0000 C   0  0  0  0  0  0           0  0  0
    0.0306   -4.8218    0.0000 C   0  0  0  0  0  0           0  0  0
   -0.4471   -3.8980    0.0000 C   0  0  0  0  0  0           0  0  0
   -1.5098   -3.8655    0.0000 F   0  0  0  0  0  0           0  0  0
    4.7336   -5.0038    0.0000 C   0  0  0  0  0  0           0  0  0
    5.2686   -5.3110    0.0000 N   0  0  0  0  0  0           0  0  0
    4.7355   -4.4704    0.0000 O   0  0  0  0  0  0           0  0  0
    6.3433   -5.3087    0.0000 C   0  0  0  0  0  0           0  0  0
    6.3446   -5.9254    0.0000 O   0  0  0  0  0  0           0  0  0
    5.8115   -5.0015    0.0000 C   0  0  2  0  0  0           0  0  0
    5.8119   -4.4131    0.0000 C   0  0  0  0  0  0           0  0  0
    6.3191   -4.1192    0.0000 C   0  0  0  0  0  0           0  0  0
    6.3194   -3.5391    0.0000 C   0  0  0  0  0  0           0  0  0
    6.8266   -3.2452    0.0000 O   0  0  0  0  0  0           0  0  0
    5.8125   -3.2446    0.0000 N   0  0  0  0  0  0           0  0  0
    6.8749   -5.0092    0.0000 N   0  0  0  0  0  0           0  0  0
    7.9874   -5.0092    0.0000 C   0  0  0  0  0  0           0  0  0
    5.8016   -2.1834    0.0000 C   0  0  3  0  0  0           0  0  0
    4.9947   -2.1847    0.0000 C   0  0  0  0  0  0           0  0  0
    6.5225   -2.1875    0.0000 C   0  0  0  0  0  0           0  0  0
    5.7734   -1.4676    0.0000 C   0  0  0  0  0  0           0  0  0
    6.3818   -1.0893    0.0000 C   0  0  0  0  0  0           0  0  0
    6.3540   -0.3742    0.0000 C   0  0  0  0  0  0           0  0  0
    5.7196   -0.0400    0.0000 C   0  0  0  0  0  0           0  0  0
    5.1119   -0.4261    0.0000 C   0  0  0  0  0  0           0  0  0
    5.1427   -1.1399    0.0000 C   0  0  0  0  0  0           0  0  0
    6.8766   -2.8167    0.0000 C   0  0  0  0  0  0           0  0  0
    7.5969   -2.8211    0.0000 C   0  0  0  0  0  0           0  0  0
    7.9616   -2.1983    0.0000 C   0  0  0  0  0  0           0  0  0
    7.6008   -1.5697    0.0000 C   0  0  0  0  0  0           0  0  0
    6.8817   -1.5684    0.0000 C   0  0  0  0  0  0           0  0  0
    4.5916   -1.4861    0.0000 C   0  0  0  0  0  0           0  0  0
    3.7854   -1.4871    0.0000 C   0  0  0  0  0  0           0  0  0
    3.3824   -2.1871    0.0000 C   0  0  0  0  0  0           0  0  0
    3.7913   -2.8876    0.0000 C   0  0  0  0  0  0           0  0  0
    4.5961   -2.8831    0.0000 C   0  0  0  0  0  0           0  0  0
    8.5406   -5.9747    0.0000 C   0  0  0  0  0  0           0  0  0
    9.6521   -5.9752    0.0000 C   0  0  0  0  0  0           0  0  0
   10.2095   -5.0110    0.0000 C   0  0  0  0  0  0           0  0  0
    9.6473   -4.0444    0.0000 C   0  0  0  0  0  0           0  0  0
    8.5376   -4.0486    0.0000 C   0  0  0  0  0  0           0  0  0
   10.2030   -3.0740    0.0000 O   0  0  0  0  0  0           0  0  0
   11.3232   -5.0095    0.0000 O   0  0  0  0  0  0           0  0  0
   11.8813   -5.9733    0.0000 C   0  0  0  0  0  0           0  0  0
 26 27  2  0     0  0
  8  7  2  0     0  0
 26 28  1  0     0  0
  9  8  1  0     0  0
 11 10  1  0     0  0
 29 30  1  0     0  0
 12 11  2  0     0  0
 28 31  1  0     0  0
 13 11  1  0     0  0
 31 32  1  0     0  0
 14 12  1  0     0  0
 31 33  1  0     0  0
 15 13  2  0     0  0
 31 34  1  0     0  0
 16 14  2  0     0  0
 34 35  2  0     0  0
 16 15  1  0     0  0
 35 36  1  0     0  0
 17 16  1  0     0  0
 36 37  2  0     0  0
 37 38  1  0     0  0
  2 18  1  0     0  0
 38 39  2  0     0  0
 39 34  1  0     0  0
  2  1  1  0     0  0
 33 40  2  0     0  0
 18 19  1  0     0  0
 40 41  1  0     0  0
  3  1  1  0     0  0
 41 42  2  0     0  0
 18 20  2  0     0  0
 42 43  1  0     0  0
 19 23  1  0     0  0
 43 44  2  0     0  0
 44 33  1  0     0  0
 10  1  1  0     0  0
 32 45  2  0     0  0
 23 21  1  0     0  0
 45 46  1  0     0  0
  5  2  2  0     0  0
 46 47  2  0     0  0
 21 22  2  0     0  0
 47 48  1  0     0  0
 21 29  1  0     0  0
 48 49  2  0     0  0
 49 32  1  0     0  0
  4  3  2  0     0  0
 30 50  2  0     0  0
 23 24  1  1     0  0
 50 51  1  0     0  0
  6  3  1  0     0  0
 51 52  2  0     0  0
  5  4  1  0     0  0
 52 53  1  0     0  0
 24 25  1  0     0  0
 53 54  2  0     0  0
 54 30  1  0     0  0
  7  4  1  0     0  0
 53 55  1  0     0  0
 25 26  1  0     0  0
 52 56  1  0     0  0
  9  6  2  0     0  0
 56 57  1  0     0  0
M  END
>  <prID>
586

>  <IDDB>
167981

>  <pIC50_HIV_Integrase>
5.27572413

>  <Q>
-3.030041322

>  <Activity_Integrase>
Inactive_Integrase

NA
NA
NA
NA
$$$$

  Accelrys05311914332D 1   1.00000     0.00000     0

 64 70  0     0  0            999 V2000
    3.8143   -5.5112    0.0000 C   0  0  0  0  0  0           0  0  0
    4.7336   -5.0038    0.0000 C   0  0  0  0  0  0           0  0  0
    5.2686   -5.3110    0.0000 N   0  0  0  0  0  0           0  0  0
    4.7355   -4.4704    0.0000 O   0  0  0  0  0  0           0  0  0
    6.3433   -5.3087    0.0000 C   0  0  0  0  0  0           0  0  0
    6.3446   -5.9254    0.0000 O   0  0  0  0  0  0           0  0  0
    5.8115   -5.0015    0.0000 C   0  0  2  0  0  0           0  0  0
    5.8119   -4.4131    0.0000 C   0  0  0  0  0  0           0  0  0
    6.3191   -4.1192    0.0000 C   0  0  0  0  0  0           0  0  0
    6.3194   -3.5391    0.0000 C   0  0  0  0  0  0           0  0  0
    6.8266   -3.2452    0.0000 O   0  0  0  0  0  0           0  0  0
    5.8125   -3.2446    0.0000 N   0  0  0  0  0  0           0  0  0
    6.8749   -5.0092    0.0000 N   0  0  0  0  0  0           0  0  0
    7.9874   -5.0092    0.0000 C   0  0  0  0  0  0           0  0  0
    8.5406   -5.9747    0.0000 C   0  0  0  0  0  0           0  0  0
    9.6521   -5.9752    0.0000 C   0  0  0  0  0  0           0  0  0
   10.2095   -5.0110    0.0000 C   0  0  0  0  0  0           0  0  0
    9.6473   -4.0444    0.0000 C   0  0  0  0  0  0           0  0  0
    8.5376   -4.0486    0.0000 C   0  0  0  0  0  0           0  0  0
   10.2030   -3.0740    0.0000 O   0  0  0  0  0  0           0  0  0
   11.3232   -5.0095    0.0000 O   0  0  0  0  0  0           0  0  0
   11.8813   -5.9733    0.0000 C   0  0  0  0  0  0           0  0  0
    2.9203   -4.9649    0.0000 C   0  0  0  0  0  0           0  0  0
    2.0016   -5.4713    0.0000 C   0  0  0  0  0  0           0  0  0
    1.9808   -6.5223    0.0000 C   0  0  0  0  0  0           0  0  0
    2.8862   -7.0646    0.0000 C   0  0  0  0  0  0           0  0  0
    3.8011   -6.5551    0.0000 C   0  0  0  0  0  0           0  0  0
    1.1037   -4.9290    0.0000 O   0  0  0  0  0  0           0  0  0
    1.0612   -7.0314    0.0000 O   0  0  0  0  0  0           0  0  0
    0.1605   -6.4895    0.0000 C   0  0  0  0  0  0           0  0  0
    1.1245   -3.8801    0.0000 C   0  0  0  0  0  0           0  0  0
   -0.7591   -6.9986    0.0000 C   0  0  0  0  0  0           0  0  0
    0.2265   -3.3378    0.0000 C   0  0  0  0  0  0           0  0  0
    0.2528   -2.2880    0.0000 C   0  0  0  0  0  0           0  0  0
   -0.6440   -1.7457    0.0000 C   0  0  0  0  0  0           0  0  0
   -1.5640   -2.2522    0.0000 C   0  0  0  0  0  0           0  0  0
   -1.5815   -3.3065    0.0000 C   0  0  0  0  0  0           0  0  0
   -0.6838   -3.8440    0.0000 C   0  0  0  0  0  0           0  0  0
   -1.6567   -6.4558    0.0000 C   0  0  0  0  0  0           0  0  0
   -2.5756   -6.9640    0.0000 C   0  0  0  0  0  0           0  0  0
   -2.5951   -8.0161    0.0000 C   0  0  0  0  0  0           0  0  0
   -1.6880   -8.5578    0.0000 C   0  0  0  0  0  0           0  0  0
   -0.7727   -8.0465    0.0000 C   0  0  0  0  0  0           0  0  0
   -2.4636   -1.7104    0.0000 F   0  0  0  0  0  0           0  0  0
   -3.5150   -8.5270    0.0000 F   0  0  0  0  0  0           0  0  0
    5.8016   -1.9959    0.0000 C   0  0  3  0  0  0           0  0  0
    5.2947   -1.7014    0.0000 C   0  0  0  0  0  0           0  0  0
    6.3100   -1.7041    0.0000 C   0  0  0  0  0  0           0  0  0
    5.0443   -2.6885    0.0000 C   0  0  0  0  0  0           0  0  0
    5.2974   -1.1154    0.0000 C   0  0  0  0  0  0           0  0  0
    4.7911   -0.8210    0.0000 C   0  0  0  0  0  0           0  0  0
    4.2819   -1.1128    0.0000 C   0  0  0  0  0  0           0  0  0
    4.2822   -1.7021    0.0000 C   0  0  0  0  0  0           0  0  0
    4.7889   -1.9938    0.0000 C   0  0  0  0  0  0           0  0  0
    6.8160   -2.0018    0.0000 C   0  0  0  0  0  0           0  0  0
    7.3241   -1.7105    0.0000 C   0  0  0  0  0  0           0  0  0
    7.3260   -1.1237    0.0000 C   0  0  0  0  0  0           0  0  0
    6.8156   -0.8293    0.0000 C   0  0  0  0  0  0           0  0  0
    6.3095   -1.1222    0.0000 C   0  0  0  0  0  0           0  0  0
    4.4793   -2.5315    0.0000 C   0  0  0  0  0  0           0  0  0
    4.0639   -2.9444    0.0000 C   0  0  0  0  0  0           0  0  0
    4.2140   -3.5117    0.0000 C   0  0  0  0  0  0           0  0  0
    4.7832   -3.6639    0.0000 C   0  0  0  0  0  0           0  0  0
    5.1962   -3.2500    0.0000 C   0  0  0  0  0  0           0  0  0
 15 16  1  0     0  0
 30 32  1  0     0  0
  2  4  2  0     0  0
 31 33  1  0     0  0
 16 17  2  0     0  0
 33 34  2  0     0  0
  3  7  1  0     0  0
 34 35  1  0     0  0
 17 18  1  0     0  0
 35 36  2  0     0  0
  8  9  1  0     0  0
 36 37  1  0     0  0
 18 19  2  0     0  0
 37 38  2  0     0  0
 38 33  1  0     0  0
 19 14  1  0     0  0
 32 39  2  0     0  0
 39 40  1  0     0  0
 18 20  1  0     0  0
 40 41  2  0     0  0
  9 10  1  0     0  0
 41 42  1  0     0  0
 17 21  1  0     0  0
 42 43  2  0     0  0
 43 32  1  0     0  0
  7  5  1  0     0  0
 36 44  1  0     0  0
 21 22  1  0     0  0
 41 45  1  0     0  0
 10 11  2  0     0  0
 12 46  1  0     0  0
  1 23  2  0     0  0
 46 47  1  0     0  0
  2  3  1  0     0  0
 46 48  1  0     0  0
 23 24  1  0     0  0
 46 49  1  0     0  0
 10 12  1  0     0  0
 47 50  2  0     0  0
 24 25  2  0     0  0
 50 51  1  0     0  0
  5  6  2  0     0  0
 51 52  2  0     0  0
 25 26  1  0     0  0
 52 53  1  0     0  0
  5 13  1  0     0  0
 53 54  2  0     0  0
 54 47  1  0     0  0
 26 27  2  0     0  0
 48 55  2  0     0  0
 27  1  1  0     0  0
 55 56  1  0     0  0
 13 14  1  0     0  0
 56 57  2  0     0  0
 24 28  1  0     0  0
 57 58  1  0     0  0
  1  2  1  0     0  0
 58 59  2  0     0  0
 59 48  1  0     0  0
 25 29  1  0     0  0
 49 60  2  0     0  0
 14 15  2  0     0  0
 60 61  1  0     0  0
 29 30  1  0     0  0
 61 62  2  0     0  0
  7  8  1  1     0  0
 62 63  1  0     0  0
 28 31  1  0     0  0
 63 64  2  0     0  0
 64 49  1  0     0  0
M  END
>  <prID>
587

>  <IDDB>
167983

>  <pIC50_HIV_Integrase>
5.214670165

>  <Q>
-5.757439601

>  <Activity_Integrase>
Inactive_Integrase

NA
NA
NA
NA
$$$$

  Accelrys05311914322D 1   1.00000     0.00000     0

 64 70  0     0  0            999 V2000
    4.7336   -5.0038    0.0000 C   0  0  0  0  0  0           0  0  0
    5.2686   -5.3110    0.0000 N   0  0  0  0  0  0           0  0  0
    4.7355   -4.4704    0.0000 O   0  0  0  0  0  0           0  0  0
    6.3433   -5.3087    0.0000 C   0  0  0  0  0  0           0  0  0
    6.3446   -5.9254    0.0000 O   0  0  0  0  0  0           0  0  0
    5.8115   -5.0015    0.0000 C   0  0  2  0  0  0           0  0  0
    5.8119   -4.4131    0.0000 C   0  0  0  0  0  0           0  0  0
    6.3191   -4.1192    0.0000 C   0  0  0  0  0  0           0  0  0
    6.3194   -3.5391    0.0000 C   0  0  0  0  0  0           0  0  0
    6.8266   -3.2452    0.0000 O   0  0  0  0  0  0           0  0  0
    5.8125   -3.2446    0.0000 N   0  0  0  0  0  0           0  0  0
    6.8749   -5.0092    0.0000 N   0  0  0  0  0  0           0  0  0
    7.9874   -5.0092    0.0000 C   0  0  0  0  0  0           0  0  0
    8.5406   -5.9747    0.0000 C   0  0  0  0  0  0           0  0  0
    9.6521   -5.9752    0.0000 C   0  0  0  0  0  0           0  0  0
   10.2095   -5.0110    0.0000 C   0  0  0  0  0  0           0  0  0
    9.6473   -4.0444    0.0000 C   0  0  0  0  0  0           0  0  0
    8.5376   -4.0486    0.0000 C   0  0  0  0  0  0           0  0  0
   10.2030   -3.0740    0.0000 O   0  0  0  0  0  0           0  0  0
   11.3232   -5.0095    0.0000 O   0  0  0  0  0  0           0  0  0
   11.8813   -5.9733    0.0000 C   0  0  0  0  0  0           0  0  0
    5.8016   -1.9959    0.0000 C   0  0  3  0  0  0           0  0  0
    5.2947   -1.7014    0.0000 C   0  0  0  0  0  0           0  0  0
    6.3100   -1.7041    0.0000 C   0  0  0  0  0  0           0  0  0
    5.0443   -2.6885    0.0000 C   0  0  0  0  0  0           0  0  0
    5.2974   -1.1154    0.0000 C   0  0  0  0  0  0           0  0  0
    4.7911   -0.8210    0.0000 C   0  0  0  0  0  0           0  0  0
    4.2819   -1.1128    0.0000 C   0  0  0  0  0  0           0  0  0
    4.2822   -1.7021    0.0000 C   0  0  0  0  0  0           0  0  0
    4.7889   -1.9938    0.0000 C   0  0  0  0  0  0           0  0  0
    6.8160   -2.0018    0.0000 C   0  0  0  0  0  0           0  0  0
    7.3241   -1.7105    0.0000 C   0  0  0  0  0  0           0  0  0
    7.3260   -1.1237    0.0000 C   0  0  0  0  0  0           0  0  0
    6.8156   -0.8293    0.0000 C   0  0  0  0  0  0           0  0  0
    6.3095   -1.1222    0.0000 C   0  0  0  0  0  0           0  0  0
    4.4793   -2.5315    0.0000 C   0  0  0  0  0  0           0  0  0
    4.0639   -2.9444    0.0000 C   0  0  0  0  0  0           0  0  0
    4.2140   -3.5117    0.0000 C   0  0  0  0  0  0           0  0  0
    4.7832   -3.6639    0.0000 C   0  0  0  0  0  0           0  0  0
    5.1962   -3.2500    0.0000 C   0  0  0  0  0  0           0  0  0
    4.0189   -5.4159    0.0000 C   0  0  0  0  0  0           0  0  0
    3.3047   -5.0031    0.0000 C   0  0  0  0  0  0           0  0  0
    2.5900   -5.4152    0.0000 C   0  0  0  0  0  0           0  0  0
    1.8798   -4.9985    0.0000 C   0  0  0  0  0  0           0  0  0
    1.1656   -5.4099    0.0000 C   0  0  0  0  0  0           0  0  0
    1.1647   -6.2358    0.0000 C   0  0  0  0  0  0           0  0  0
    1.8839   -6.6485    0.0000 C   0  0  0  0  0  0           0  0  0
    2.5952   -6.2348    0.0000 C   0  0  0  0  0  0           0  0  0
    0.4515   -4.9967    0.0000 O   0  0  0  0  0  0           0  0  0
    0.4505   -6.6489    0.0000 O   0  0  0  0  0  0           0  0  0
    0.4524   -4.1717    0.0000 C   0  0  0  0  0  0           0  0  0
   -0.2617   -3.7585    0.0000 C   0  0  0  0  0  0           0  0  0
   -0.2643   -6.2369    0.0000 C   0  0  0  0  0  0           0  0  0
   -0.9784   -6.6500    0.0000 C   0  0  0  0  0  0           0  0  0
   -0.2572   -2.9325    0.0000 C   0  0  0  0  0  0           0  0  0
   -0.9705   -2.5194    0.0000 C   0  0  0  0  0  0           0  0  0
   -1.6863   -2.9312    0.0000 C   0  0  0  0  0  0           0  0  0
   -1.6845   -3.7605    0.0000 C   0  0  0  0  0  0           0  0  0
   -0.9707   -4.1699    0.0000 C   0  0  0  0  0  0           0  0  0
   -1.6924   -6.2345    0.0000 C   0  0  0  0  0  0           0  0  0
   -2.4061   -6.6468    0.0000 C   0  0  0  0  0  0           0  0  0
   -2.4059   -7.4727    0.0000 C   0  0  0  0  0  0           0  0  0
   -1.6861   -7.8845    0.0000 C   0  0  0  0  0  0           0  0  0
   -0.9753   -7.4698    0.0000 C   0  0  0  0  0  0           0  0  0
 15 16  2  0     0  0
 31 32  1  0     0  0
  7  8  1  0     0  0
 32 33  2  0     0  0
 16 17  1  0     0  0
 33 34  1  0     0  0
  6  4  1  0     0  0
 34 35  2  0     0  0
 35 24  1  0     0  0
 17 18  2  0     0  0
 25 36  2  0     0  0
 18 13  1  0     0  0
 36 37  1  0     0  0
  8  9  1  0     0  0
 37 38  2  0     0  0
 17 19  1  0     0  0
 38 39  1  0     0  0
 39 40  2  0     0  0
 40 25  1  0     0  0
 16 20  1  0     0  0
  1 41  1  0     0  0
  9 10  2  0     0  0
 41 42  2  0     0  0
 20 21  1  0     0  0
 42 43  1  0     0  0
  4  5  2  0     0  0
 43 44  2  0     0  0
 11 22  1  0     0  0
 44 45  1  0     0  0
  9 11  1  0     0  0
 45 46  2  0     0  0
 22 23  1  0     0  0
 46 47  1  0     0  0
  4 12  1  0     0  0
 47 48  2  0     0  0
 48 43  1  0     0  0
 22 24  1  0     0  0
 45 49  1  0     0  0
  1  3  2  0     0  0
 46 50  1  0     0  0
 22 25  1  0     0  0
 49 51  1  0     0  0
 12 13  1  0     0  0
 51 52  1  0     0  0
 23 26  2  0     0  0
 50 53  1  0     0  0
  6  7  1  1     0  0
 53 54  1  0     0  0
 26 27  1  0     0  0
 52 55  2  0     0  0
 13 14  2  0     0  0
 55 56  1  0     0  0
 27 28  2  0     0  0
 56 57  2  0     0  0
  2  6  1  0     0  0
 57 58  1  0     0  0
 28 29  1  0     0  0
 58 59  2  0     0  0
 59 52  1  0     0  0
 14 15  1  0     0  0
 54 60  2  0     0  0
 29 30  2  0     0  0
 60 61  1  0     0  0
 30 23  1  0     0  0
 61 62  2  0     0  0
  1  2  1  0     0  0
 62 63  1  0     0  0
 24 31  2  0     0  0
 63 64  2  0     0  0
 64 54  1  0     0  0
M  END
>  <prID>
588

>  <IDDB>
167984

>  <pIC50_HIV_Integrase>
5.698970004

>  <Q>
-0.521993791

>  <Activity_Integrase>
Inactive_Integrase

NA
NA
NA
NA
$$$$

  Accelrys05311914322D 1   1.00000     0.00000     0

 50 55  0     0  0            999 V2000
    2.8859   -5.3263    0.0000 N   0  0  0  0  0  0           0  0  0
    3.8861   -5.6216    0.0000 C   0  0  0  0  0  0           0  0  0
    2.2487   -6.1609    0.0000 C   0  0  0  0  0  0           0  0  0
    2.8911   -7.0370    0.0000 C   0  0  0  0  0  0           0  0  0
    3.8786   -6.6803    0.0000 C   0  0  0  0  0  0           0  0  0
    1.1964   -6.2957    0.0000 C   0  0  0  0  0  0           0  0  0
    2.4461   -8.0001    0.0000 C   0  0  0  0  0  0           0  0  0
    1.4256   -8.1115    0.0000 C   0  0  0  0  0  0           0  0  0
    0.7833   -7.2354    0.0000 C   0  0  0  0  0  0           0  0  0
    4.7303   -5.0026    0.0000 C   0  0  0  0  0  0           0  0  0
    1.0242   -9.0671    0.0000 F   0  0  0  0  0  0           0  0  0
    5.2686   -5.3110    0.0000 N   0  0  0  0  0  0           0  0  0
    4.7355   -4.4704    0.0000 O   0  0  0  0  0  0           0  0  0
    6.3433   -5.3087    0.0000 C   0  0  0  0  0  0           0  0  0
    6.3446   -5.9254    0.0000 O   0  0  0  0  0  0           0  0  0
    5.8115   -5.0015    0.0000 C   0  0  2  0  0  0           0  0  0
    5.8119   -4.4131    0.0000 C   0  0  0  0  0  0           0  0  0
    6.3191   -4.1192    0.0000 C   0  0  0  0  0  0           0  0  0
    6.3194   -3.5391    0.0000 C   0  0  0  0  0  0           0  0  0
    6.8266   -3.2452    0.0000 O   0  0  0  0  0  0           0  0  0
    5.8125   -3.2446    0.0000 N   0  0  0  0  0  0           0  0  0
    6.8749   -5.0092    0.0000 N   0  0  0  0  0  0           0  0  0
    7.9874   -5.0092    0.0000 C   0  0  0  0  0  0           0  0  0
    8.5406   -5.9747    0.0000 C   0  0  0  0  0  0           0  0  0
    9.6521   -5.9752    0.0000 C   0  0  0  0  0  0           0  0  0
   10.2095   -5.0110    0.0000 C   0  0  0  0  0  0           0  0  0
    9.6473   -4.0444    0.0000 C   0  0  0  0  0  0           0  0  0
    8.5376   -4.0486    0.0000 C   0  0  0  0  0  0           0  0  0
   10.2030   -3.0740    0.0000 O   0  0  0  0  0  0           0  0  0
   11.3232   -5.0095    0.0000 O   0  0  0  0  0  0           0  0  0
   11.8813   -5.9733    0.0000 C   0  0  0  0  0  0           0  0  0
    5.8016   -1.9959    0.0000 C   0  0  3  0  0  0           0  0  0
    5.2947   -1.7014    0.0000 C   0  0  0  0  0  0           0  0  0
    6.3100   -1.7041    0.0000 C   0  0  0  0  0  0           0  0  0
    5.0443   -2.6885    0.0000 C   0  0  0  0  0  0           0  0  0
    5.2974   -1.1154    0.0000 C   0  0  0  0  0  0           0  0  0
    4.7911   -0.8210    0.0000 C   0  0  0  0  0  0           0  0  0
    4.2819   -1.1128    0.0000 C   0  0  0  0  0  0           0  0  0
    4.2822   -1.7021    0.0000 C   0  0  0  0  0  0           0  0  0
    4.7889   -1.9938    0.0000 C   0  0  0  0  0  0           0  0  0
    6.8160   -2.0018    0.0000 C   0  0  0  0  0  0           0  0  0
    7.3241   -1.7105    0.0000 C   0  0  0  0  0  0           0  0  0
    7.3260   -1.1237    0.0000 C   0  0  0  0  0  0           0  0  0
    6.8156   -0.8293    0.0000 C   0  0  0  0  0  0           0  0  0
    6.3095   -1.1222    0.0000 C   0  0  0  0  0  0           0  0  0
    4.4793   -2.5315    0.0000 C   0  0  0  0  0  0           0  0  0
    4.0639   -2.9444    0.0000 C   0  0  0  0  0  0           0  0  0
    4.2140   -3.5117    0.0000 C   0  0  0  0  0  0           0  0  0
    4.7832   -3.6639    0.0000 C   0  0  0  0  0  0           0  0  0
    5.1962   -3.2500    0.0000 C   0  0  0  0  0  0           0  0  0
 24 25  1  0     0  0
 10 12  1  0     0  0
 25 26  2  0     0  0
  2  1  1  0     0  0
 26 27  1  0     0  0
 10 13  2  0     0  0
 27 28  2  0     0  0
 28 23  1  0     0  0
 12 16  1  0     0  0
 27 29  1  0     0  0
  3  1  1  0     0  0
 26 30  1  0     0  0
 16 14  1  0     0  0
 30 31  1  0     0  0
  5  2  2  0     0  0
 21 32  1  0     0  0
 14 15  2  0     0  0
 32 33  1  0     0  0
 14 22  1  0     0  0
 32 34  1  0     0  0
 10  2  1  0     0  0
 32 35  1  0     0  0
 16 17  1  1     0  0
 33 36  2  0     0  0
  4  3  2  0     0  0
 36 37  1  0     0  0
  6  3  1  0     0  0
 37 38  2  0     0  0
 17 18  1  0     0  0
 38 39  1  0     0  0
  5  4  1  0     0  0
 39 40  2  0     0  0
 40 33  1  0     0  0
 18 19  1  0     0  0
 34 41  2  0     0  0
  7  4  1  0     0  0
 41 42  1  0     0  0
 19 20  2  0     0  0
 42 43  2  0     0  0
  9  6  2  0     0  0
 43 44  1  0     0  0
 19 21  1  0     0  0
 44 45  2  0     0  0
 45 34  1  0     0  0
  8  7  2  0     0  0
 35 46  2  0     0  0
  9  8  1  0     0  0
 46 47  1  0     0  0
 22 23  1  0     0  0
 47 48  2  0     0  0
 11  8  1  0     0  0
 48 49  1  0     0  0
 23 24  2  0     0  0
 49 50  2  0     0  0
 50 35  1  0     0  0
M  END
>  <prID>
589

>  <IDDB>
167985

>  <pIC50_HIV_Integrase>
5.187086643

>  <Q>
-4.4372719

>  <Activity_Integrase>
Inactive_Integrase

NA
NA
NA
NA
$$$$

  Accelrys05311914322D 1   1.00000     0.00000     0

 18 18  0     0  0            999 V2000
    4.3792   -1.5042    0.0000 C   0  0  0  0  0  0           0  0  0
    5.0917   -1.0917    0.0000 N   0  0  3  0  0  0           0  0  0
    5.8042   -1.5042    0.0000 C   0  0  0  0  0  0           0  0  0
    6.5167   -1.0917    0.0000 C   0  0  0  0  0  0           0  0  0
    7.2292   -1.5042    0.0000 C   0  0  0  0  0  0           0  0  0
    2.9549   -1.5054    0.0000 C   0  0  0  0  0  0           0  0  0
    3.6667   -1.0917    0.0000 C   0  0  0  0  0  0           0  0  0
    3.6633   -0.2702    0.0000 C   0  0  0  0  0  0           0  0  0
    2.9488    0.1385    0.0000 C   0  0  0  0  0  0           0  0  0
    2.2363   -0.2803    0.0000 C   0  0  0  0  0  0           0  0  0
    2.2432   -1.1004    0.0000 C   0  0  0  0  0  0           0  0  0
    5.0917   -0.2667    0.0000 C   0  0  0  0  0  0           0  0  0
    5.8042   -2.3292    0.0000 O   0  0  0  0  0  0           0  0  0
    7.2282   -2.3292    0.0000 O   0  0  0  0  0  0           0  0  0
    7.9441   -1.0925    0.0000 C   0  0  0  0  0  0           0  0  0
    8.6581   -1.5059    0.0000 O   0  0  0  0  0  0           0  0  0
    7.9451   -0.2675    0.0000 O   0  0  0  0  0  0           0  0  0
    1.5185    0.1264    0.0000 F   0  0  0  0  0  0           0  0  0
  1  2  1  0     0  0
  9 10  1  0     0  0
  4  5  2  0     0  0
 10 11  2  0     0  0
 11  6  1  0     0  0
  7  1  1  0     0  0
  2 12  1  0     0  0
  2  3  1  0     0  0
  3 13  2  0     0  0
  6  7  2  0     0  0
  5 14  1  0     0  0
  5 15  1  0     0  0
  7  8  1  0     0  0
 15 16  1  0     0  0
  3  4  1  0     0  0
 15 17  2  0     0  0
  8  9  2  0     0  0
 10 18  1  0     0  0
M  END
>  <prID>
590

>  <IDDB>
170300

>  <pIC50_HIV_Integrase>
6.958607315

>  <Q>
-2.987764597

>  <Activity_Integrase>
Active_Integrase

NA
NA
NA
NA
$$$$

  Accelrys05311914322D 1   1.00000     0.00000     0

 25 26  0     0  0            999 V2000
    4.6542   -4.5625    0.0000 C   0  0  3  0  0  0           0  0  0
    5.3708   -4.1500    0.0000 N   0  0  3  0  0  0           0  0  0
    6.0833   -4.5625    0.0000 C   0  0  0  0  0  0           0  0  0
    6.8000   -4.1500    0.0000 C   0  0  0  0  0  0           0  0  0
    7.5167   -4.5625    0.0000 C   0  0  0  0  0  0           0  0  0
    5.3708   -3.3208    0.0000 C   0  0  0  0  0  0           0  0  0
    6.0833   -5.3917    0.0000 O   0  0  0  0  0  0           0  0  0
    7.5157   -5.3917    0.0000 O   0  0  0  0  0  0           0  0  0
    8.2358   -4.1509    0.0000 C   0  0  0  0  0  0           0  0  0
    8.9539   -4.5642    0.0000 O   0  0  0  0  0  0           0  0  0
    8.2368   -3.3217    0.0000 O   0  0  0  0  0  0           0  0  0
    6.0853   -2.9042    0.0000 C   0  0  0  0  0  0           0  0  0
    3.9350   -4.1509    0.0000 C   0  0  0  0  0  0           0  0  0
    4.6552   -5.3917    0.0000 C   0  0  0  0  0  0           0  0  0
    6.8025   -3.3255    0.0000 C   0  0  0  0  0  0           0  0  0
    7.5206   -2.9095    0.0000 C   0  0  0  0  0  0           0  0  0
    7.5211   -2.0795    0.0000 C   0  0  0  0  0  0           0  0  0
    6.7974   -1.6671    0.0000 C   0  0  0  0  0  0           0  0  0
    6.0822   -2.0813    0.0000 C   0  0  0  0  0  0           0  0  0
    3.9385   -3.3215    0.0000 C   0  0  0  0  0  0           0  0  0
    3.2202   -2.9057    0.0000 C   0  0  0  0  0  0           0  0  0
    2.5011   -3.3233    0.0000 C   0  0  0  0  0  0           0  0  0
    2.5048   -4.1567    0.0000 C   0  0  0  0  0  0           0  0  0
    3.2236   -4.5646    0.0000 C   0  0  0  0  0  0           0  0  0
    8.2392   -1.6660    0.0000 F   0  0  0  0  0  0           0  0  0
  1 13  1  0     0  0
  3  7  2  0     0  0
  1 14  1  0     0  0
  3  4  1  0     0  0
 12 15  2  0     0  0
  5  8  1  0     0  0
 15 16  1  0     0  0
 16 17  2  0     0  0
  5  9  1  0     0  0
 17 18  1  0     0  0
  4  5  2  0     0  0
 18 19  2  0     0  0
 19 12  1  0     0  0
  9 10  1  0     0  0
 13 20  2  0     0  0
  2  3  1  0     0  0
 20 21  1  0     0  0
  9 11  2  0     0  0
 21 22  2  0     0  0
  2  6  1  0     0  0
 22 23  1  0     0  0
  6 12  1  0     0  0
 23 24  2  0     0  0
 24 13  1  0     0  0
  1  2  1  0     0  0
 17 25  1  0     0  0
M  END
>  <prID>
591

>  <IDDB>
170307

>  <pIC50_HIV_Integrase>
4.15490196

>  <Q>
-3.016754451

>  <Activity_Integrase>
Inactive_Integrase

NA
NA
NA
NA
$$$$

  Accelrys05311914322D 1   1.00000     0.00000     0

 18 18  0     0  0            999 V2000
    1.8417   -2.3667    0.0000 N   0  0  0  0  0  0           0  0  0
    2.5542   -1.9542    0.0000 C   0  0  0  0  0  0           0  0  0
    3.2667   -2.3625    0.0000 C   0  0  0  0  0  0           0  0  0
    3.9792   -1.9500    0.0000 C   0  0  0  0  0  0           0  0  0
    4.6917   -2.3583    0.0000 C   0  0  0  0  0  0           0  0  0
    3.9774   -1.1250    0.0000 O   0  0  0  0  0  0           0  0  0
    2.5524   -1.1292    0.0000 O   0  0  0  0  0  0           0  0  0
    4.6943   -3.1833    0.0000 O   0  0  0  0  0  0           0  0  0
    5.4048   -1.9436    0.0000 O   0  0  0  0  0  0           0  0  0
    1.1250   -1.9542    0.0000 C   0  0  0  0  0  0           0  0  0
    0.4111   -2.3676    0.0000 C   0  0  0  0  0  0           0  0  0
   -0.3034   -1.9548    0.0000 C   0  0  0  0  0  0           0  0  0
   -1.0168   -2.3676    0.0000 C   0  0  0  0  0  0           0  0  0
   -1.0162   -3.1935    0.0000 C   0  0  0  0  0  0           0  0  0
   -0.2961   -3.6048    0.0000 C   0  0  0  0  0  0           0  0  0
    0.4144   -3.1897    0.0000 C   0  0  0  0  0  0           0  0  0
   -0.3036   -1.1298    0.0000 O   0  0  0  0  0  0           0  0  0
   -1.0182   -0.7175    0.0000 C   0  0  0  0  0  0           0  0  0
  4  5  1  0     0  0
  1 10  1  0     0  0
  2  3  1  0     0  0
 10 11  1  0     0  0
  4  6  1  0     0  0
 11 12  2  0     0  0
  1  2  1  0     0  0
 12 13  1  0     0  0
  2  7  2  0     0  0
 13 14  2  0     0  0
  3  4  2  0     0  0
 14 15  1  0     0  0
  5  8  2  0     0  0
 15 16  2  0     0  0
 16 11  1  0     0  0
 12 17  1  0     0  0
  5  9  1  0     0  0
 17 18  1  0     0  0
M  END
>  <prID>
592

>  <IDDB>
170369

>  <pIC50_HIV_Integrase>
5.227965978

>  <Q>
-1.83371232

>  <Activity_Integrase>
Inactive_Integrase

NA
NA
NA
NA
$$$$

  Accelrys05311914322D 1   1.00000     0.00000     0

 17 17  0     0  0            999 V2000
    1.8417   -2.3667    0.0000 N   0  0  0  0  0  0           0  0  0
    2.5542   -1.9542    0.0000 C   0  0  0  0  0  0           0  0  0
    3.2667   -2.3625    0.0000 C   0  0  0  0  0  0           0  0  0
    3.9792   -1.9500    0.0000 C   0  0  0  0  0  0           0  0  0
    4.6917   -2.3583    0.0000 C   0  0  0  0  0  0           0  0  0
    3.9774   -1.1250    0.0000 O   0  0  0  0  0  0           0  0  0
    2.5524   -1.1292    0.0000 O   0  0  0  0  0  0           0  0  0
    4.6943   -3.1833    0.0000 O   0  0  0  0  0  0           0  0  0
    5.4048   -1.9436    0.0000 O   0  0  0  0  0  0           0  0  0
    1.1250   -1.9542    0.0000 C   0  0  0  0  0  0           0  0  0
    0.4111   -2.3676    0.0000 C   0  0  0  0  0  0           0  0  0
   -0.3034   -1.9548    0.0000 C   0  0  0  0  0  0           0  0  0
   -1.0168   -2.3676    0.0000 C   0  0  0  0  0  0           0  0  0
   -1.0162   -3.1935    0.0000 C   0  0  0  0  0  0           0  0  0
   -0.2961   -3.6048    0.0000 C   0  0  0  0  0  0           0  0  0
    0.4144   -3.1897    0.0000 C   0  0  0  0  0  0           0  0  0
   -0.3036   -1.1298    0.0000 C   0  0  0  0  0  0           0  0  0
  5  9  1  0     0  0
  4  5  1  0     0  0
  1 10  1  0     0  0
  2  3  1  0     0  0
 10 11  1  0     0  0
  4  6  1  0     0  0
 11 12  2  0     0  0
  1  2  1  0     0  0
 12 13  1  0     0  0
  2  7  2  0     0  0
 13 14  2  0     0  0
  3  4  2  0     0  0
 14 15  1  0     0  0
  5  8  2  0     0  0
 15 16  2  0     0  0
 16 11  1  0     0  0
 12 17  1  0     0  0
M  END
>  <prID>
593

>  <IDDB>
170370

>  <pIC50_HIV_Integrase>
5.020479304

>  <Q>
-1.80396544

>  <Activity_Integrase>
Inactive_Integrase

NA
NA
NA
NA
$$$$

  Accelrys05311914322D 1   1.00000     0.00000     0

 18 18  0     0  0            999 V2000
    1.8417   -2.3667    0.0000 N   0  0  0  0  0  0           0  0  0
    2.5542   -1.9542    0.0000 C   0  0  0  0  0  0           0  0  0
    3.2667   -2.3625    0.0000 C   0  0  0  0  0  0           0  0  0
    3.9792   -1.9500    0.0000 C   0  0  0  0  0  0           0  0  0
    4.6917   -2.3583    0.0000 C   0  0  0  0  0  0           0  0  0
    3.9774   -1.1250    0.0000 O   0  0  0  0  0  0           0  0  0
    2.5524   -1.1292    0.0000 O   0  0  0  0  0  0           0  0  0
    4.6943   -3.1833    0.0000 O   0  0  0  0  0  0           0  0  0
    5.4048   -1.9436    0.0000 O   0  0  0  0  0  0           0  0  0
    1.1250   -1.9542    0.0000 C   0  0  0  0  0  0           0  0  0
    0.4111   -2.3676    0.0000 C   0  0  0  0  0  0           0  0  0
   -0.3034   -1.9548    0.0000 C   0  0  0  0  0  0           0  0  0
   -1.0168   -2.3676    0.0000 C   0  0  0  0  0  0           0  0  0
   -1.0162   -3.1935    0.0000 C   0  0  0  0  0  0           0  0  0
   -0.2961   -3.6048    0.0000 C   0  0  0  0  0  0           0  0  0
    0.4144   -3.1897    0.0000 C   0  0  0  0  0  0           0  0  0
   -1.7316   -1.9557    0.0000 O   0  0  0  0  0  0           0  0  0
   -2.4500   -2.3625    0.0000 C   0  0  0  0  0  0           0  0  0
  4  5  1  0     0  0
  1 10  1  0     0  0
  2  3  1  0     0  0
 10 11  1  0     0  0
  4  6  1  0     0  0
 11 12  2  0     0  0
  1  2  1  0     0  0
 12 13  1  0     0  0
  2  7  2  0     0  0
 13 14  2  0     0  0
  3  4  2  0     0  0
 14 15  1  0     0  0
  5  8  2  0     0  0
 15 16  2  0     0  0
 16 11  1  0     0  0
 13 17  1  0     0  0
  5  9  1  0     0  0
 17 18  1  0     0  0
M  END
>  <prID>
594

>  <IDDB>
170371

>  <pIC50_HIV_Integrase>
5.619788758

>  <Q>
-1.829704201

>  <Activity_Integrase>
Inactive_Integrase

NA
NA
NA
NA
$$$$

  Accelrys05311914322D 1   1.00000     0.00000     0

 17 17  0     0  0            999 V2000
    1.8417   -2.3667    0.0000 N   0  0  0  0  0  0           0  0  0
    2.5542   -1.9542    0.0000 C   0  0  0  0  0  0           0  0  0
    3.2667   -2.3625    0.0000 C   0  0  0  0  0  0           0  0  0
    3.9792   -1.9500    0.0000 C   0  0  0  0  0  0           0  0  0
    4.6917   -2.3583    0.0000 C   0  0  0  0  0  0           0  0  0
    3.9774   -1.1250    0.0000 O   0  0  0  0  0  0           0  0  0
    2.5524   -1.1292    0.0000 O   0  0  0  0  0  0           0  0  0
    4.6943   -3.1833    0.0000 O   0  0  0  0  0  0           0  0  0
    5.4048   -1.9436    0.0000 O   0  0  0  0  0  0           0  0  0
    1.1250   -1.9542    0.0000 C   0  0  0  0  0  0           0  0  0
    0.4111   -2.3676    0.0000 C   0  0  0  0  0  0           0  0  0
   -0.3034   -1.9548    0.0000 C   0  0  0  0  0  0           0  0  0
   -1.0168   -2.3676    0.0000 C   0  0  0  0  0  0           0  0  0
   -1.0162   -3.1935    0.0000 C   0  0  0  0  0  0           0  0  0
   -0.2961   -3.6048    0.0000 C   0  0  0  0  0  0           0  0  0
    0.4144   -3.1897    0.0000 C   0  0  0  0  0  0           0  0  0
   -1.7316   -1.9557    0.0000 C   0  0  0  0  0  0           0  0  0
  5  9  1  0     0  0
  4  5  1  0     0  0
  1 10  1  0     0  0
  2  3  1  0     0  0
 10 11  1  0     0  0
  4  6  1  0     0  0
 11 12  2  0     0  0
  1  2  1  0     0  0
 12 13  1  0     0  0
  2  7  2  0     0  0
 13 14  2  0     0  0
  3  4  2  0     0  0
 14 15  1  0     0  0
  5  8  2  0     0  0
 15 16  2  0     0  0
 16 11  1  0     0  0
 13 17  1  0     0  0
M  END
>  <prID>
595

>  <IDDB>
170372

>  <pIC50_HIV_Integrase>
6.522878745

>  <Q>
-1.752374926

>  <Activity_Integrase>
Active_Integrase

NA
NA
NA
NA
$$$$

  Accelrys05311914322D 1   1.00000     0.00000     0

 17 17  0     0  0            999 V2000
    1.8417   -2.3667    0.0000 N   0  0  0  0  0  0           0  0  0
    2.5542   -1.9542    0.0000 C   0  0  0  0  0  0           0  0  0
    3.2667   -2.3625    0.0000 C   0  0  0  0  0  0           0  0  0
    3.9792   -1.9500    0.0000 C   0  0  0  0  0  0           0  0  0
    4.6917   -2.3583    0.0000 C   0  0  0  0  0  0           0  0  0
    3.9774   -1.1250    0.0000 O   0  0  0  0  0  0           0  0  0
    2.5524   -1.1292    0.0000 O   0  0  0  0  0  0           0  0  0
    4.6943   -3.1833    0.0000 O   0  0  0  0  0  0           0  0  0
    5.4048   -1.9436    0.0000 O   0  0  0  0  0  0           0  0  0
    1.1250   -1.9542    0.0000 C   0  0  0  0  0  0           0  0  0
    0.4111   -2.3676    0.0000 C   0  0  0  0  0  0           0  0  0
   -0.3034   -1.9548    0.0000 C   0  0  0  0  0  0           0  0  0
   -1.0168   -2.3676    0.0000 C   0  0  0  0  0  0           0  0  0
   -1.0162   -3.1935    0.0000 C   0  0  0  0  0  0           0  0  0
   -0.2961   -3.6048    0.0000 C   0  0  0  0  0  0           0  0  0
    0.4144   -3.1897    0.0000 C   0  0  0  0  0  0           0  0  0
   -1.7333   -3.6000    0.0000 F   0  0  0  0  0  0           0  0  0
  5  9  1  0     0  0
  4  5  1  0     0  0
  1 10  1  0     0  0
  2  3  1  0     0  0
 10 11  1  0     0  0
  4  6  1  0     0  0
 11 12  2  0     0  0
  1  2  1  0     0  0
 12 13  1  0     0  0
  2  7  2  0     0  0
 13 14  2  0     0  0
  3  4  2  0     0  0
 14 15  1  0     0  0
  5  8  2  0     0  0
 15 16  2  0     0  0
 16 11  1  0     0  0
 14 17  1  0     0  0
M  END
>  <prID>
596

>  <IDDB>
170373

>  <pIC50_HIV_Integrase>
6.698970004

>  <Q>
-4.063795265

>  <Activity_Integrase>
Active_Integrase

NA
NA
NA
NA
$$$$

  Accelrys05311914322D 1   1.00000     0.00000     0

 17 17  0     0  0            999 V2000
    1.8417   -2.3667    0.0000 N   0  0  0  0  0  0           0  0  0
    2.5542   -1.9542    0.0000 C   0  0  0  0  0  0           0  0  0
    3.2667   -2.3625    0.0000 C   0  0  0  0  0  0           0  0  0
    3.9792   -1.9500    0.0000 C   0  0  0  0  0  0           0  0  0
    4.6917   -2.3583    0.0000 C   0  0  0  0  0  0           0  0  0
    3.9774   -1.1250    0.0000 O   0  0  0  0  0  0           0  0  0
    2.5524   -1.1292    0.0000 O   0  0  0  0  0  0           0  0  0
    4.6943   -3.1833    0.0000 O   0  0  0  0  0  0           0  0  0
    5.4048   -1.9436    0.0000 O   0  0  0  0  0  0           0  0  0
    1.1250   -1.9542    0.0000 C   0  0  0  0  0  0           0  0  0
    0.4111   -2.3676    0.0000 C   0  0  0  0  0  0           0  0  0
   -0.3034   -1.9548    0.0000 C   0  0  0  0  0  0           0  0  0
   -1.0168   -2.3676    0.0000 C   0  0  0  0  0  0           0  0  0
   -1.0162   -3.1935    0.0000 C   0  0  0  0  0  0           0  0  0
   -0.2961   -3.6048    0.0000 C   0  0  0  0  0  0           0  0  0
    0.4144   -3.1897    0.0000 C   0  0  0  0  0  0           0  0  0
   -1.7333   -3.6000    0.0000 Cl  0  0  0  0  0  0           0  0  0
  5  9  1  0     0  0
  4  5  1  0     0  0
  1 10  1  0     0  0
  2  3  1  0     0  0
 10 11  1  0     0  0
  4  6  1  0     0  0
 11 12  2  0     0  0
  1  2  1  0     0  0
 12 13  1  0     0  0
  2  7  2  0     0  0
 13 14  2  0     0  0
  3  4  2  0     0  0
 14 15  1  0     0  0
  5  8  2  0     0  0
 15 16  2  0     0  0
 16 11  1  0     0  0
 14 17  1  0     0  0
M  END
>  <prID>
597

>  <IDDB>
170374

>  <pIC50_HIV_Integrase>
5.958607315

>  <Q>
-2.520943788

>  <Activity_Integrase>
Inactive_Integrase

NA
NA
NA
NA
$$$$

  Accelrys05311914322D 1   1.00000     0.00000     0

 18 18  0     0  0            999 V2000
    1.8417   -2.3667    0.0000 N   0  0  0  0  0  0           0  0  0
    2.5542   -1.9542    0.0000 C   0  0  0  0  0  0           0  0  0
    3.2667   -2.3625    0.0000 C   0  0  0  0  0  0           0  0  0
    3.9792   -1.9500    0.0000 C   0  0  0  0  0  0           0  0  0
    4.6917   -2.3583    0.0000 C   0  0  0  0  0  0           0  0  0
    3.9774   -1.1250    0.0000 O   0  0  0  0  0  0           0  0  0
    2.5524   -1.1292    0.0000 O   0  0  0  0  0  0           0  0  0
    4.6943   -3.1833    0.0000 O   0  0  0  0  0  0           0  0  0
    5.4048   -1.9436    0.0000 O   0  0  0  0  0  0           0  0  0
    1.1250   -1.9542    0.0000 C   0  0  0  0  0  0           0  0  0
    0.4111   -2.3676    0.0000 C   0  0  0  0  0  0           0  0  0
   -0.3034   -1.9548    0.0000 C   0  0  0  0  0  0           0  0  0
   -1.0168   -2.3676    0.0000 C   0  0  0  0  0  0           0  0  0
   -1.0162   -3.1935    0.0000 C   0  0  0  0  0  0           0  0  0
   -0.2961   -3.6048    0.0000 C   0  0  0  0  0  0           0  0  0
    0.4144   -3.1897    0.0000 C   0  0  0  0  0  0           0  0  0
   -1.7333   -3.6000    0.0000 O   0  0  0  0  0  0           0  0  0
   -2.4445   -3.1819    0.0000 C   0  0  0  0  0  0           0  0  0
  4  5  1  0     0  0
  1 10  1  0     0  0
  2  3  1  0     0  0
 10 11  1  0     0  0
  4  6  1  0     0  0
 11 12  2  0     0  0
  1  2  1  0     0  0
 12 13  1  0     0  0
  2  7  2  0     0  0
 13 14  2  0     0  0
  3  4  2  0     0  0
 14 15  1  0     0  0
  5  8  2  0     0  0
 15 16  2  0     0  0
 16 11  1  0     0  0
 14 17  1  0     0  0
  5  9  1  0     0  0
 17 18  1  0     0  0
M  END
>  <prID>
598

>  <IDDB>
170375

>  <pIC50_HIV_Integrase>
5.37675071

>  <Q>
-1.830692026

>  <Activity_Integrase>
Inactive_Integrase

NA
NA
NA
NA
$$$$

  Accelrys05311914322D 1   1.00000     0.00000     0

 17 17  0     0  0            999 V2000
    1.8417   -2.3667    0.0000 N   0  0  0  0  0  0           0  0  0
    2.5542   -1.9542    0.0000 C   0  0  0  0  0  0           0  0  0
    3.2667   -2.3625    0.0000 C   0  0  0  0  0  0           0  0  0
    3.9792   -1.9500    0.0000 C   0  0  0  0  0  0           0  0  0
    4.6917   -2.3583    0.0000 C   0  0  0  0  0  0           0  0  0
    3.9774   -1.1250    0.0000 O   0  0  0  0  0  0           0  0  0
    2.5524   -1.1292    0.0000 O   0  0  0  0  0  0           0  0  0
    4.6943   -3.1833    0.0000 O   0  0  0  0  0  0           0  0  0
    5.4048   -1.9436    0.0000 O   0  0  0  0  0  0           0  0  0
    1.1250   -1.9542    0.0000 C   0  0  0  0  0  0           0  0  0
    0.4111   -2.3676    0.0000 C   0  0  0  0  0  0           0  0  0
   -0.3034   -1.9548    0.0000 C   0  0  0  0  0  0           0  0  0
   -1.0168   -2.3676    0.0000 C   0  0  0  0  0  0           0  0  0
   -1.0162   -3.1935    0.0000 C   0  0  0  0  0  0           0  0  0
   -0.2961   -3.6048    0.0000 C   0  0  0  0  0  0           0  0  0
    0.4144   -3.1897    0.0000 C   0  0  0  0  0  0           0  0  0
   -1.7295   -3.6079    0.0000 C   0  0  0  0  0  0           0  0  0
  5  9  1  0     0  0
  4  5  1  0     0  0
  1 10  1  0     0  0
  2  3  1  0     0  0
 10 11  1  0     0  0
  4  6  1  0     0  0
 11 12  2  0     0  0
  1  2  1  0     0  0
 12 13  1  0     0  0
  2  7  2  0     0  0
 13 14  2  0     0  0
  3  4  2  0     0  0
 14 15  1  0     0  0
  5  8  2  0     0  0
 15 16  2  0     0  0
 16 11  1  0     0  0
 14 17  1  0     0  0
M  END
>  <prID>
599

>  <IDDB>
170376

>  <pIC50_HIV_Integrase>
5.853871964

>  <Q>
-1.7597932

>  <Activity_Integrase>
Inactive_Integrase

NA
NA
NA
NA
$$$$

  Accelrys05311914322D 1   1.00000     0.00000     0

 20 20  0     0  0            999 V2000
    1.8417   -2.3667    0.0000 N   0  0  0  0  0  0           0  0  0
    2.5542   -1.9542    0.0000 C   0  0  0  0  0  0           0  0  0
    3.2667   -2.3625    0.0000 C   0  0  0  0  0  0           0  0  0
    3.9792   -1.9500    0.0000 C   0  0  0  0  0  0           0  0  0
    4.6917   -2.3583    0.0000 C   0  0  0  0  0  0           0  0  0
    3.9774   -1.1250    0.0000 O   0  0  0  0  0  0           0  0  0
    2.5524   -1.1292    0.0000 O   0  0  0  0  0  0           0  0  0
    4.6943   -3.1833    0.0000 O   0  0  0  0  0  0           0  0  0
    5.4048   -1.9436    0.0000 O   0  0  0  0  0  0           0  0  0
    1.1250   -1.9542    0.0000 C   0  0  0  0  0  0           0  0  0
    0.4111   -2.3676    0.0000 C   0  0  0  0  0  0           0  0  0
   -0.3034   -1.9548    0.0000 C   0  0  0  0  0  0           0  0  0
   -1.0168   -2.3676    0.0000 C   0  0  0  0  0  0           0  0  0
   -1.0162   -3.1935    0.0000 C   0  0  0  0  0  0           0  0  0
   -0.2961   -3.6048    0.0000 C   0  0  0  0  0  0           0  0  0
    0.4144   -3.1897    0.0000 C   0  0  0  0  0  0           0  0  0
   -1.7295   -3.6079    0.0000 C   0  0  3  0  0  0           0  0  0
   -1.7375   -4.4292    0.0000 F   0  0  0  0  0  0           0  0  0
   -2.5333   -3.3875    0.0000 F   0  0  0  0  0  0           0  0  0
   -2.4500   -4.0125    0.0000 F   0  0  0  0  0  0           0  0  0
  2  3  1  0     0  0
 10 11  1  0     0  0
  4  6  1  0     0  0
 11 12  2  0     0  0
  1  2  1  0     0  0
 12 13  1  0     0  0
  2  7  2  0     0  0
 13 14  2  0     0  0
  3  4  2  0     0  0
 14 15  1  0     0  0
  5  8  2  0     0  0
 15 16  2  0     0  0
 16 11  1  0     0  0
 14 17  1  0     0  0
  5  9  1  0     0  0
 17 18  1  0     0  0
  4  5  1  0     0  0
 17 19  1  0     0  0
  1 10  1  0     0  0
 17 20  1  0     0  0
M  END
>  <prID>
600

>  <IDDB>
170377

>  <pIC50_HIV_Integrase>
5.045757491

>  <Q>
-10.00812815

>  <Activity_Integrase>
Inactive_Integrase

NA
NA
NA
NA
$$$$

  Accelrys05311914322D 1   1.00000     0.00000     0

 19 19  0     0  0            999 V2000
    6.5000   -3.6375    0.0000 N   0  0  0  0  0  0           0  0  0
    7.2167   -3.2208    0.0000 C   0  0  0  0  0  0           0  0  0
    7.9333   -3.6333    0.0000 C   0  0  0  0  0  0           0  0  0
    8.6500   -3.2167    0.0000 C   0  0  0  0  0  0           0  0  0
    9.3667   -3.6292    0.0000 C   0  0  0  0  0  0           0  0  0
    8.6482   -2.3875    0.0000 O   0  0  0  0  0  0           0  0  0
    7.2149   -2.3917    0.0000 O   0  0  0  0  0  0           0  0  0
    9.3693   -4.4583    0.0000 O   0  0  0  0  0  0           0  0  0
   10.0840   -3.2102    0.0000 O   0  0  0  0  0  0           0  0  0
    5.7833   -3.2208    0.0000 C   0  0  0  0  0  0           0  0  0
    5.0652   -3.6384    0.0000 C   0  0  0  0  0  0           0  0  0
    4.3466   -3.2215    0.0000 C   0  0  0  0  0  0           0  0  0
    3.6290   -3.6384    0.0000 C   0  0  0  0  0  0           0  0  0
    3.6297   -4.4685    0.0000 C   0  0  0  0  0  0           0  0  0
    4.3539   -4.8798    0.0000 C   0  0  0  0  0  0           0  0  0
    5.0685   -4.4647    0.0000 C   0  0  0  0  0  0           0  0  0
    2.9121   -4.8829    0.0000 N   0  3  0  0  0  0           0  0  0
    2.9042   -5.7042    0.0000 O   0  5  0  0  0  0           0  0  0
    2.3208   -4.2917    0.0000 O   0  0  0  0  0  0           0  0  0
  1 10  1  0     0  0
  2  3  1  0     0  0
 10 11  1  0     0  0
  4  6  1  0     0  0
 11 12  2  0     0  0
  1  2  1  0     0  0
 12 13  1  0     0  0
  2  7  2  0     0  0
 13 14  2  0     0  0
  3  4  2  0     0  0
 14 15  1  0     0  0
  5  8  2  0     0  0
 15 16  2  0     0  0
 16 11  1  0     0  0
 14 17  1  0     0  0
  5  9  1  0     0  0
 17 18  1  0     0  0
  4  5  1  0     0  0
 17 19  2  0     0  0
M  CHG  2  17   1  18  -1
M  END
>  <prID>
601

>  <IDDB>
170378

>  <pIC50_HIV_Integrase>
5.677780705

>  <Q>
-1.764221014

>  <Activity_Integrase>
Inactive_Integrase

NA
NA
NA
NA
$$$$

  Accelrys05311914322D 1   1.00000     0.00000     0

 17 17  0     0  0            999 V2000
    6.5000   -3.6375    0.0000 N   0  0  0  0  0  0           0  0  0
    7.2167   -3.2208    0.0000 C   0  0  0  0  0  0           0  0  0
    7.9333   -3.6333    0.0000 C   0  0  0  0  0  0           0  0  0
    8.6500   -3.2167    0.0000 C   0  0  0  0  0  0           0  0  0
    9.3667   -3.6292    0.0000 C   0  0  0  0  0  0           0  0  0
    8.6482   -2.3875    0.0000 O   0  0  0  0  0  0           0  0  0
    7.2149   -2.3917    0.0000 O   0  0  0  0  0  0           0  0  0
    9.3693   -4.4583    0.0000 O   0  0  0  0  0  0           0  0  0
   10.0840   -3.2102    0.0000 O   0  0  0  0  0  0           0  0  0
    5.7833   -3.2208    0.0000 C   0  0  0  0  0  0           0  0  0
    5.0652   -3.6384    0.0000 C   0  0  0  0  0  0           0  0  0
    4.3466   -3.2215    0.0000 C   0  0  0  0  0  0           0  0  0
    3.6290   -3.6384    0.0000 C   0  0  0  0  0  0           0  0  0
    3.6297   -4.4685    0.0000 C   0  0  0  0  0  0           0  0  0
    4.3539   -4.8798    0.0000 C   0  0  0  0  0  0           0  0  0
    5.0685   -4.4647    0.0000 C   0  0  0  0  0  0           0  0  0
    2.9083   -3.2250    0.0000 Cl  0  0  0  0  0  0           0  0  0
  5  9  1  0     0  0
  4  5  1  0     0  0
  1 10  1  0     0  0
  2  3  1  0     0  0
 10 11  1  0     0  0
  4  6  1  0     0  0
 11 12  2  0     0  0
  1  2  1  0     0  0
 12 13  1  0     0  0
  2  7  2  0     0  0
 13 14  2  0     0  0
  3  4  2  0     0  0
 14 15  1  0     0  0
  5  8  2  0     0  0
 15 16  2  0     0  0
 16 11  1  0     0  0
 13 17  1  0     0  0
M  END
>  <prID>
602

>  <IDDB>
170379

>  <pIC50_HIV_Integrase>
6.22184875

>  <Q>
-2.52110089

>  <Activity_Integrase>
Active_Integrase

NA
NA
NA
NA
$$$$

  Accelrys05311914322D 1   1.00000     0.00000     0

 20 20  0     0  0            999 V2000
    6.5000   -3.6375    0.0000 N   0  0  0  0  0  0           0  0  0
    7.2167   -3.2208    0.0000 C   0  0  0  0  0  0           0  0  0
    7.9333   -3.6333    0.0000 C   0  0  0  0  0  0           0  0  0
    8.6500   -3.2167    0.0000 C   0  0  0  0  0  0           0  0  0
    9.3667   -3.6292    0.0000 C   0  0  0  0  0  0           0  0  0
    8.6482   -2.3875    0.0000 O   0  0  0  0  0  0           0  0  0
    7.2149   -2.3917    0.0000 O   0  0  0  0  0  0           0  0  0
    9.3693   -4.4583    0.0000 O   0  0  0  0  0  0           0  0  0
   10.0840   -3.2102    0.0000 O   0  0  0  0  0  0           0  0  0
    5.7833   -3.2208    0.0000 C   0  0  0  0  0  0           0  0  0
    5.0652   -3.6384    0.0000 C   0  0  0  0  0  0           0  0  0
    4.3466   -3.2215    0.0000 C   0  0  0  0  0  0           0  0  0
    3.6290   -3.6384    0.0000 C   0  0  0  0  0  0           0  0  0
    3.6297   -4.4685    0.0000 C   0  0  0  0  0  0           0  0  0
    4.3539   -4.8798    0.0000 C   0  0  0  0  0  0           0  0  0
    5.0685   -4.4647    0.0000 C   0  0  0  0  0  0           0  0  0
    2.9125   -4.8750    0.0000 C   0  0  3  0  0  0           0  0  0
    2.1125   -4.6583    0.0000 C   0  0  0  0  0  0           0  0  0
    2.1958   -5.2833    0.0000 C   0  0  0  0  0  0           0  0  0
    2.9083   -5.7000    0.0000 C   0  0  0  0  0  0           0  0  0
  2  3  1  0     0  0
 10 11  1  0     0  0
  4  6  1  0     0  0
 11 12  2  0     0  0
  1  2  1  0     0  0
 12 13  1  0     0  0
  2  7  2  0     0  0
 13 14  2  0     0  0
  3  4  2  0     0  0
 14 15  1  0     0  0
  5  8  2  0     0  0
 15 16  2  0     0  0
 16 11  1  0     0  0
 14 17  1  0     0  0
  5  9  1  0     0  0
 17 18  1  0     0  0
  4  5  1  0     0  0
 17 19  1  0     0  0
  1 10  1  0     0  0
 17 20  1  0     0  0
M  END
>  <prID>
603

>  <IDDB>
170380

>  <pIC50_HIV_Integrase>
3.744727495

>  <Q>
-1.854244628

>  <Activity_Integrase>
Inactive_Integrase

NA
NA
NA
NA
$$$$

  Accelrys05311914322D 1   1.00000     0.00000     0

 18 18  0     0  0            999 V2000
    6.5000   -3.6375    0.0000 N   0  0  0  0  0  0           0  0  0
    7.2167   -3.2208    0.0000 C   0  0  0  0  0  0           0  0  0
    7.9333   -3.6333    0.0000 C   0  0  0  0  0  0           0  0  0
    8.6500   -3.2167    0.0000 C   0  0  0  0  0  0           0  0  0
    9.3667   -3.6292    0.0000 C   0  0  0  0  0  0           0  0  0
    8.6482   -2.3875    0.0000 O   0  0  0  0  0  0           0  0  0
    7.2149   -2.3917    0.0000 O   0  0  0  0  0  0           0  0  0
    9.3693   -4.4583    0.0000 O   0  0  0  0  0  0           0  0  0
   10.0840   -3.2102    0.0000 O   0  0  0  0  0  0           0  0  0
    5.7833   -3.2208    0.0000 C   0  0  3  0  0  0           0  0  0
    5.0652   -3.6384    0.0000 C   0  0  0  0  0  0           0  0  0
    4.3466   -3.2215    0.0000 C   0  0  0  0  0  0           0  0  0
    3.6290   -3.6384    0.0000 C   0  0  0  0  0  0           0  0  0
    3.6297   -4.4685    0.0000 C   0  0  0  0  0  0           0  0  0
    4.3539   -4.8798    0.0000 C   0  0  0  0  0  0           0  0  0
    5.0685   -4.4647    0.0000 C   0  0  0  0  0  0           0  0  0
    5.7833   -2.3958    0.0000 C   0  0  0  0  0  0           0  0  0
    2.9168   -4.8837    0.0000 F   0  0  0  0  0  0           0  0  0
  4  5  1  0     0  0
  1 10  1  0     0  0
  2  3  1  0     0  0
 10 11  1  0     0  0
  4  6  1  0     0  0
 11 12  2  0     0  0
  1  2  1  0     0  0
 12 13  1  0     0  0
  2  7  2  0     0  0
 13 14  2  0     0  0
  3  4  2  0     0  0
 14 15  1  0     0  0
  5  8  2  0     0  0
 15 16  2  0     0  0
 16 11  1  0     0  0
 10 17  1  0     0  0
  5  9  1  0     0  0
 14 18  1  0     0  0
M  END
>  <prID>
604

>  <IDDB>
170381

>  <pIC50_HIV_Integrase>
5.522878745

>  <Q>
-4.421346941

>  <Activity_Integrase>
Inactive_Integrase

NA
NA
NA
NA
$$$$

  Accelrys05311914322D 1   1.00000     0.00000     0

 18 18  0     0  0            999 V2000
    6.5000   -3.6375    0.0000 N   0  0  0  0  0  0           0  0  0
    7.2167   -3.2208    0.0000 C   0  0  0  0  0  0           0  0  0
    7.9333   -3.6333    0.0000 C   0  0  0  0  0  0           0  0  0
    8.6500   -3.2167    0.0000 C   0  0  0  0  0  0           0  0  0
    9.3667   -3.6292    0.0000 C   0  0  0  0  0  0           0  0  0
    8.6482   -2.3875    0.0000 O   0  0  0  0  0  0           0  0  0
    7.2149   -2.3917    0.0000 O   0  0  0  0  0  0           0  0  0
    9.3693   -4.4583    0.0000 O   0  0  0  0  0  0           0  0  0
   10.0840   -3.2102    0.0000 O   0  0  0  0  0  0           0  0  0
    5.7833   -3.2208    0.0000 C   0  0  0  0  0  0           0  0  0
    5.0652   -3.6384    0.0000 C   0  0  0  0  0  0           0  0  0
    4.3466   -3.2215    0.0000 C   0  0  0  0  0  0           0  0  0
    3.6290   -3.6384    0.0000 C   0  0  0  0  0  0           0  0  0
    3.6297   -4.4685    0.0000 C   0  0  0  0  0  0           0  0  0
    4.3539   -4.8798    0.0000 C   0  0  0  0  0  0           0  0  0
    5.0685   -4.4647    0.0000 C   0  0  0  0  0  0           0  0  0
    4.3464   -2.3965    0.0000 Cl  0  0  0  0  0  0           0  0  0
    2.9138   -3.2272    0.0000 Cl  0  0  0  0  0  0           0  0  0
  4  5  1  0     0  0
  1 10  1  0     0  0
  2  3  1  0     0  0
 10 11  1  0     0  0
  4  6  1  0     0  0
 11 12  2  0     0  0
  1  2  1  0     0  0
 12 13  1  0     0  0
  2  7  2  0     0  0
 13 14  2  0     0  0
  3  4  2  0     0  0
 14 15  1  0     0  0
  5  8  2  0     0  0
 15 16  2  0     0  0
 16 11  1  0     0  0
 12 17  1  0     0  0
  5  9  1  0     0  0
 13 18  1  0     0  0
M  END
>  <prID>
605

>  <IDDB>
170382

>  <pIC50_HIV_Integrase>
6.698970004

>  <Q>
-3.405764074

>  <Activity_Integrase>
Active_Integrase

NA
NA
NA
NA
$$$$

  Accelrys05311914322D 1   1.00000     0.00000     0

 20 20  0     0  0            999 V2000
    6.5000   -3.6375    0.0000 N   0  0  0  0  0  0           0  0  0
    7.2167   -3.2208    0.0000 C   0  0  0  0  0  0           0  0  0
    7.9333   -3.6333    0.0000 C   0  0  0  0  0  0           0  0  0
    8.6500   -3.2167    0.0000 C   0  0  0  0  0  0           0  0  0
    9.3667   -3.6292    0.0000 C   0  0  0  0  0  0           0  0  0
    8.6482   -2.3875    0.0000 O   0  0  0  0  0  0           0  0  0
    7.2149   -2.3917    0.0000 O   0  0  0  0  0  0           0  0  0
    9.3693   -4.4583    0.0000 O   0  0  0  0  0  0           0  0  0
   10.0840   -3.2102    0.0000 O   0  0  0  0  0  0           0  0  0
    5.7833   -3.2208    0.0000 C   0  0  0  0  0  0           0  0  0
    5.0652   -3.6384    0.0000 C   0  0  0  0  0  0           0  0  0
    4.3466   -3.2215    0.0000 C   0  0  0  0  0  0           0  0  0
    3.6290   -3.6384    0.0000 C   0  0  0  0  0  0           0  0  0
    3.6297   -4.4685    0.0000 C   0  0  0  0  0  0           0  0  0
    4.3539   -4.8798    0.0000 C   0  0  0  0  0  0           0  0  0
    5.0685   -4.4647    0.0000 C   0  0  0  0  0  0           0  0  0
    4.3464   -2.3965    0.0000 O   0  0  0  0  0  0           0  0  0
    2.9168   -4.8837    0.0000 O   0  0  0  0  0  0           0  0  0
    5.0607   -1.9838    0.0000 C   0  0  0  0  0  0           0  0  0
    2.9200   -5.7087    0.0000 C   0  0  0  0  0  0           0  0  0
  2  3  1  0     0  0
 10 11  1  0     0  0
  4  6  1  0     0  0
 11 12  2  0     0  0
  1  2  1  0     0  0
 12 13  1  0     0  0
  2  7  2  0     0  0
 13 14  2  0     0  0
  3  4  2  0     0  0
 14 15  1  0     0  0
  5  8  2  0     0  0
 15 16  2  0     0  0
 16 11  1  0     0  0
 12 17  1  0     0  0
  5  9  1  0     0  0
 14 18  1  0     0  0
  4  5  1  0     0  0
 17 19  1  0     0  0
  1 10  1  0     0  0
 18 20  1  0     0  0
M  END
>  <prID>
606

>  <IDDB>
170383

>  <pIC50_HIV_Integrase>
5.124938737

>  <Q>
-2.094700603

>  <Activity_Integrase>
Inactive_Integrase

NA
NA
NA
NA
$$$$

  Accelrys05311914322D 1   1.00000     0.00000     0

 18 18  0     0  0            999 V2000
    6.5000   -3.6375    0.0000 N   0  0  0  0  0  0           0  0  0
    7.2167   -3.2208    0.0000 C   0  0  0  0  0  0           0  0  0
    7.9333   -3.6333    0.0000 C   0  0  0  0  0  0           0  0  0
    8.6500   -3.2167    0.0000 C   0  0  0  0  0  0           0  0  0
    9.3667   -3.6292    0.0000 C   0  0  0  0  0  0           0  0  0
    8.6482   -2.3875    0.0000 O   0  0  0  0  0  0           0  0  0
    7.2149   -2.3917    0.0000 O   0  0  0  0  0  0           0  0  0
    9.3693   -4.4583    0.0000 O   0  0  0  0  0  0           0  0  0
   10.0840   -3.2102    0.0000 O   0  0  0  0  0  0           0  0  0
    5.7833   -3.2208    0.0000 C   0  0  0  0  0  0           0  0  0
    5.0652   -3.6384    0.0000 C   0  0  0  0  0  0           0  0  0
    4.3466   -3.2215    0.0000 C   0  0  0  0  0  0           0  0  0
    3.6290   -3.6384    0.0000 C   0  0  0  0  0  0           0  0  0
    3.6297   -4.4685    0.0000 C   0  0  0  0  0  0           0  0  0
    4.3539   -4.8798    0.0000 C   0  0  0  0  0  0           0  0  0
    5.0685   -4.4647    0.0000 C   0  0  0  0  0  0           0  0  0
    4.3579   -5.7048    0.0000 F   0  0  0  0  0  0           0  0  0
    2.9138   -3.2272    0.0000 F   0  0  0  0  0  0           0  0  0
  4  5  1  0     0  0
  1 10  1  0     0  0
  2  3  1  0     0  0
 10 11  1  0     0  0
  4  6  1  0     0  0
 11 12  2  0     0  0
  1  2  1  0     0  0
 12 13  1  0     0  0
  2  7  2  0     0  0
 13 14  2  0     0  0
  3  4  2  0     0  0
 14 15  1  0     0  0
  5  8  2  0     0  0
 15 16  2  0     0  0
 16 11  1  0     0  0
 15 17  1  0     0  0
  5  9  1  0     0  0
 13 18  1  0     0  0
M  END
>  <prID>
607

>  <IDDB>
170384

>  <pIC50_HIV_Integrase>
5.769551079

>  <Q>
-6.59191091

>  <Activity_Integrase>
Inactive_Integrase

NA
NA
NA
NA
$$$$

  Accelrys05311914332D 1   1.00000     0.00000     0

 17 17  0     0  0            999 V2000
    6.5000   -3.6375    0.0000 N   0  0  0  0  0  0           0  0  0
    7.2167   -3.2208    0.0000 C   0  0  0  0  0  0           0  0  0
    7.9333   -3.6333    0.0000 C   0  0  0  0  0  0           0  0  0
    8.6500   -3.2167    0.0000 C   0  0  0  0  0  0           0  0  0
    9.3667   -3.6292    0.0000 C   0  0  0  0  0  0           0  0  0
    8.6482   -2.3875    0.0000 O   0  0  0  0  0  0           0  0  0
    7.2149   -2.3917    0.0000 O   0  0  0  0  0  0           0  0  0
    9.3693   -4.4583    0.0000 O   0  0  0  0  0  0           0  0  0
   10.0840   -3.2102    0.0000 O   0  0  0  0  0  0           0  0  0
    5.7833   -3.2208    0.0000 C   0  0  2  0  0  0           0  0  0
    5.0652   -3.6384    0.0000 C   0  0  0  0  0  0           0  0  0
    4.3466   -3.2215    0.0000 C   0  0  0  0  0  0           0  0  0
    3.6290   -3.6384    0.0000 C   0  0  0  0  0  0           0  0  0
    3.6297   -4.4685    0.0000 C   0  0  0  0  0  0           0  0  0
    4.3539   -4.8798    0.0000 C   0  0  0  0  0  0           0  0  0
    5.0685   -4.4647    0.0000 C   0  0  0  0  0  0           0  0  0
    5.7833   -2.3958    0.0000 C   0  0  0  0  0  0           0  0  0
  5  9  1  0     0  0
  4  5  1  0     0  0
  1 10  1  0     0  0
  2  3  1  0     0  0
 10 11  1  0     0  0
  4  6  1  0     0  0
 11 12  2  0     0  0
  1  2  1  0     0  0
 12 13  1  0     0  0
  2  7  2  0     0  0
 13 14  2  0     0  0
  3  4  2  0     0  0
 14 15  1  0     0  0
  5  8  2  0     0  0
 15 16  2  0     0  0
 16 11  1  0     0  0
 10 17  1  6     0  0
M  END
>  <prID>
608

>  <IDDB>
170385

>  <pIC50_HIV_Integrase>
4.619788758

>  <Q>
-1.930288452

>  <Activity_Integrase>
Inactive_Integrase

NA
NA
NA
NA
$$$$

  Accelrys05311914322D 1   1.00000     0.00000     0

 25 27  0     0  0            999 V2000
    6.2378   -2.2050    0.0000 S   0  0  0  0  0  0           0  0  0
    6.6948   -1.5265    0.0000 C   0  0  0  0  0  0           0  0  0
    6.1842   -0.8783    0.0000 N   0  0  3  0  0  0           0  0  0
    5.4124   -1.1659    0.0000 C   0  0  0  0  0  0           0  0  0
    5.4493   -1.9850    0.0000 C   0  0  0  0  0  0           0  0  0
    4.7290   -0.7141    0.0000 O   0  0  0  0  0  0           0  0  0
    7.5150   -1.4934    0.0000 S   0  0  0  0  0  0           0  0  0
    4.8068   -2.4890    0.0000 C   0  0  0  0  0  0           0  0  0
    4.1957   -3.0470    0.0000 C   0  0  0  0  0  0           0  0  0
    3.3969   -2.8738    0.0000 O   0  0  0  0  0  0           0  0  0
    3.5413   -4.1971    0.0000 C   0  0  0  0  0  0           0  0  0
    4.2864   -3.8653    0.0000 C   0  0  0  0  0  0           0  0  0
    6.4113   -0.0914    0.0000 C   0  0  0  0  0  0           0  0  0
    7.1997    0.1058    0.0000 C   0  0  0  0  0  0           0  0  0
    7.4287    0.8963    0.0000 C   0  0  0  0  0  0           0  0  0
    8.2302    1.0999    0.0000 O   0  0  0  0  0  0           0  0  0
    6.8562    1.4915    0.0000 O   0  0  0  0  0  0           0  0  0
    2.9825   -3.5850    0.0000 C   0  0  0  0  0  0           0  0  0
    2.1622   -3.6724    0.0000 C   0  0  0  0  0  0           0  0  0
    1.6786   -3.0047    0.0000 C   0  0  0  0  0  0           0  0  0
    0.8589   -3.0917    0.0000 C   0  0  0  0  0  0           0  0  0
    0.5237   -3.8465    0.0000 C   0  0  0  0  0  0           0  0  0
    1.0142   -4.5151    0.0000 C   0  0  0  0  0  0           0  0  0
    1.8321   -4.4248    0.0000 C   0  0  0  0  0  0           0  0  0
    0.3734   -2.4247    0.0000 Cl  0  0  0  0  0  0           0  0  0
 11 12  1  0     0  0
 12  9  2  0     0  0
  4  6  2  0     0  0
  3 13  1  0     0  0
 13 14  1  0     0  0
  2  7  2  0     0  0
 14 15  1  0     0  0
  2  3  1  0     0  0
 15 16  1  0     0  0
  5  8  2  3     0  0
 15 17  2  0     0  0
  3  4  1  0     0  0
  8  9  1  0     0  0
 18 19  1  0     0  0
  9 10  1  0     0  0
 19 20  2  0     0  0
  4  5  1  0     0  0
 20 21  1  0     0  0
  5  1  1  0     0  0
 21 22  2  0     0  0
  1  2  1  0     0  0
 22 23  1  0     0  0
 10 18  1  0     0  0
 23 24  2  0     0  0
 24 19  1  0     0  0
 18 11  2  0     0  0
 21 25  1  0     0  0
M  END
>  <prID>
609

>  <IDDB>
171844

>  <pIC50_HIV_Integrase>
4.677780705

>  <Q>
1.528489398

>  <Activity_Integrase>
Inactive_Integrase

NA
NA
NA
NA
$$$$

  Accelrys05311914322D 1   1.00000     0.00000     0

 25 28  0     0  0            999 V2000
    2.7750   -2.6042    0.0000 C   0  0  0  0  0  0           0  0  0
    2.7667   -3.4375    0.0000 C   0  0  0  0  0  0           0  0  0
    2.0542   -3.8375    0.0000 N   0  0  3  0  0  0           0  0  0
    2.0542   -2.1917    0.0000 C   0  0  0  0  0  0           0  0  0
    3.5000   -2.2000    0.0000 C   0  0  0  0  0  0           0  0  0
    1.3417   -2.6042    0.0000 C   0  0  0  0  0  0           0  0  0
    1.3375   -3.4292    0.0000 C   0  0  0  0  0  0           0  0  0
    4.2125   -2.6167    0.0000 N   0  0  0  0  0  0           0  0  0
    4.9375   -2.2042    0.0000 C   0  0  0  0  0  0           0  0  0
    3.4917   -3.8542    0.0000 O   0  0  0  0  0  0           0  0  0
    5.6417   -2.6292    0.0000 N   0  0  0  0  0  0           0  0  0
    3.5042   -1.3667    0.0000 O   0  0  0  0  0  0           0  0  0
    0.6250   -3.8500    0.0000 C   0  0  0  0  0  0           0  0  0
    4.9375   -1.3792    0.0000 C   0  0  0  0  0  0           0  0  0
    2.0625   -1.3625    0.0000 O   0  0  0  0  0  0           0  0  0
    2.0625   -4.6667    0.0000 C   0  0  0  0  0  0           0  0  0
    0.6250   -2.1917    0.0000 C   0  0  0  0  0  0           0  0  0
    4.2250   -0.9667    0.0000 O   0  0  0  0  0  0           0  0  0
    1.3417   -5.0792    0.0000 C   0  0  0  0  0  0           0  0  0
   -0.0958   -2.6042    0.0000 C   0  0  0  0  0  0           0  0  0
    6.3667   -2.2250    0.0000 C   0  0  0  0  0  0           0  0  0
    0.6250   -4.6667    0.0000 C   0  0  0  0  0  0           0  0  0
   -0.0958   -3.4292    0.0000 C   0  0  0  0  0  0           0  0  0
    5.6542   -0.9750    0.0000 C   0  0  0  0  0  0           0  0  0
    6.3750   -1.3917    0.0000 C   0  0  0  0  0  0           0  0  0
  2  1  1  0     0  0
  3  2  1  0     0  0
  4  1  2  0     0  0
  5  1  1  0     0  0
  6  4  1  0     0  0
  7  6  1  0     0  0
  8  5  1  0     0  0
  9  8  1  0     0  0
 10  2  2  0     0  0
 11  9  2  0     0  0
 12  5  2  0     0  0
 13  7  2  0     0  0
 14  9  1  0     0  0
 15  4  1  0     0  0
 16  3  1  0     0  0
 17  6  2  0     0  0
 18 14  1  0     0  0
 19 16  1  0     0  0
 20 17  1  0     0  0
 21 11  1  0     0  0
 22 13  1  0     0  0
 23 20  2  0     0  0
 24 14  2  0     0  0
 25 24  1  0     0  0
  3  7  1  0     0  0
 23 13  1  0     0  0
 19 22  1  0     0  0
 25 21  2  0     0  0
M  END
>  <prID>
610

>  <IDDB>
175846

>  <pIC50_HIV_Integrase>
4.823908741

>  <Q>
-2.142768427

>  <Activity_Integrase>
Inactive_Integrase

NA
NA
NA
NA
$$$$

  Accelrys05311914322D 1   1.00000     0.00000     0

 24 25  0     0  0            999 V2000
    6.3780   -1.9553    0.0000 C   0  0  0  0  0  0           0  0  0
    6.3909   -3.5432    0.0000 C   0  0  0  0  0  0           0  0  0
    7.1123   -2.3606    0.0000 C   0  0  0  0  0  0           0  0  0
    7.8505   -1.9568    0.0000 C   0  0  0  0  0  0           0  0  0
    8.5836   -2.3577    0.0000 C   0  0  0  0  0  0           0  0  0
    9.3128   -1.9462    0.0000 C   0  0  0  0  0  0           0  0  0
   10.0458   -2.3513    0.0000 C   0  0  0  0  0  0           0  0  0
   10.7792   -1.9439    0.0000 O   0  0  0  0  0  0           0  0  0
   10.0495   -3.1429    0.0000 O   0  0  0  0  0  0           0  0  0
    7.8468   -1.1568    0.0000 O   0  0  0  0  0  0           0  0  0
    9.3091   -1.1504    0.0000 O   0  0  0  0  0  0           0  0  0
    5.6486   -2.3583    0.0000 C   0  0  0  0  0  0           0  0  0
    5.6500   -3.1553    0.0000 C   0  0  0  0  0  0           0  0  0
    7.1173   -3.1544    0.0000 C   0  0  0  0  0  0           0  0  0
    4.9154   -1.9662    0.0000 N   0  0  0  0  0  0           0  0  0
    4.1836   -2.3676    0.0000 C   0  0  0  0  0  0           0  0  0
    3.4489   -1.9694    0.0000 C   0  0  0  0  0  0           0  0  0
    3.4283   -1.1356    0.0000 C   0  0  0  0  0  0           0  0  0
    2.6945   -0.7374    0.0000 C   0  0  0  0  0  0           0  0  0
    1.9813   -1.1746    0.0000 C   0  0  0  0  0  0           0  0  0
    2.0066   -2.0142    0.0000 C   0  0  0  0  0  0           0  0  0
    2.7408   -2.4086    0.0000 C   0  0  0  0  0  0           0  0  0
    4.1856   -3.1926    0.0000 O   0  0  0  0  0  0           0  0  0
    2.7665   -3.2332    0.0000 Cl  0  0  0  0  0  0           0  0  0
 12 13  2  0     0  0
 13  2  1  0     0  0
  7  8  1  0     0  0
  2 14  2  0     0  0
 14  3  1  0     0  0
  3  4  1  0     0  0
 12 15  1  0     0  0
  7  9  2  0     0  0
 15 16  1  0     0  0
  5  6  1  0     0  0
 16 17  1  0     0  0
  4 10  2  0     0  0
 17 18  2  0     0  0
 18 19  1  0     0  0
  6 11  2  0     0  0
 19 20  2  0     0  0
  3  1  2  0     0  0
 20 21  1  0     0  0
  6  7  1  0     0  0
 21 22  2  0     0  0
 22 17  1  0     0  0
  1 12  1  0     0  0
 16 23  2  0     0  0
  4  5  1  0     0  0
 22 24  1  0     0  0
M  END
>  <prID>
611

>  <IDDB>
184703

>  <pIC50_HIV_Integrase>
4.744727495

>  <Q>
-1.75388968

>  <Activity_Integrase>
Inactive_Integrase

NA
NA
NA
NA
$$$$

  Accelrys05311914322D 1   1.00000     0.00000     0

 22 22  0     0  0            999 V2000
    5.0111   -1.9416    0.0000 C   0  0  0  0  0  0           0  0  0
    5.0099   -2.7690    0.0000 C   0  0  0  0  0  0           0  0  0
    5.7247   -3.1819    0.0000 C   0  0  0  0  0  0           0  0  0
    6.4412   -2.7685    0.0000 C   0  0  0  0  0  0           0  0  0
    6.4383   -1.9380    0.0000 C   0  0  0  0  0  0           0  0  0
    5.7229   -1.5289    0.0000 C   0  0  0  0  0  0           0  0  0
    4.2965   -1.5293    0.0000 C   0  0  0  0  0  0           0  0  0
    3.5821   -1.9420    0.0000 N   0  0  0  0  0  0           0  0  0
    7.1512   -1.5228    0.0000 C   0  0  0  0  0  0           0  0  0
    7.8672   -1.9326    0.0000 C   0  0  0  0  0  0           0  0  0
    8.5802   -1.5174    0.0000 C   0  0  0  0  0  0           0  0  0
    9.2962   -1.9272    0.0000 C   0  0  0  0  0  0           0  0  0
   10.0091   -1.5120    0.0000 O   0  0  0  0  0  0           0  0  0
    9.2993   -2.7522    0.0000 O   0  0  0  0  0  0           0  0  0
    8.5770   -0.6924    0.0000 O   0  0  0  0  0  0           0  0  0
    7.1481   -0.6978    0.0000 O   0  0  0  0  0  0           0  0  0
    5.7245   -4.0069    0.0000 C   0  0  0  0  0  0           0  0  0
    5.0099   -4.4192    0.0000 N   0  0  0  0  0  0           0  0  0
    4.2956   -4.0065    0.0000 N   0  3  0  0  0  0           0  0  0
    3.5750   -3.5917    0.0000 N   0  5  0  0  0  0           0  0  0
    2.8676   -1.5296    0.0000 N   0  3  0  0  0  0           0  0  0
    2.1500   -1.1167    0.0000 N   0  5  0  0  0  0           0  0  0
 10 11  2  0     0  0
  5  6  2  0     0  0
 11 12  1  0     0  0
  6  1  1  0     0  0
 12 13  1  0     0  0
  1  2  2  0     0  0
 12 14  2  0     0  0
  1  7  1  0     0  0
 11 15  1  0     0  0
  3  4  2  0     0  0
  9 16  2  0     0  0
  7  8  1  0     0  0
  3 17  1  0     0  0
 17 18  1  0     0  0
  5  9  1  0     0  0
 18 19  2  0     0  0
  4  5  1  0     0  0
 19 20  2  0     0  0
  9 10  1  0     0  0
  8 21  2  0     0  0
  2  3  1  0     0  0
 21 22  2  0     0  0
M  CHG  4  19   1  20  -1  21   1  22  -1
M  END
>  <prID>
612

>  <IDDB>
185448

>  <pIC50_HIV_Integrase>
6.769551079

>  <Q>
-2.348139298

>  <Activity_Integrase>
Active_Integrase

NA
NA
NA
NA
$$$$

  Accelrys05311914322D 1   1.00000     0.00000     0

 23 25  0     0  0            999 V2000
    3.5038   -3.7626    0.0000 C   0  0  0  0  0  0           0  0  0
    3.4942   -4.5888    0.0000 O   0  0  0  0  0  0           0  0  0
    4.2227   -3.3595    0.0000 C   0  0  0  0  0  0           0  0  0
    4.9324   -3.7801    0.0000 C   0  0  0  0  0  0           0  0  0
    4.9186   -4.6025    0.0000 N   0  0  0  0  0  0           0  0  0
    5.6275   -5.0230    0.0000 C   0  0  0  0  0  0           0  0  0
    6.3476   -4.6186    0.0000 N   0  0  0  0  0  0           0  0  0
    6.3544   -3.7893    0.0000 C   0  0  0  0  0  0           0  0  0
    5.6448   -3.3726    0.0000 C   0  0  0  0  0  0           0  0  0
    7.0721   -3.3824    0.0000 C   0  0  0  0  0  0           0  0  0
    7.7833   -3.8005    0.0000 C   0  0  0  0  0  0           0  0  0
    8.5010   -3.3936    0.0000 C   0  0  0  0  0  0           0  0  0
    9.2113   -3.8152    0.0000 C   0  0  0  0  0  0           0  0  0
    9.9285   -3.4090    0.0000 C   0  0  0  0  0  0           0  0  0
    9.9354   -2.5832    0.0000 C   0  0  0  0  0  0           0  0  0
    9.2192   -2.1652    0.0000 C   0  0  0  0  0  0           0  0  0
    8.5049   -2.5738    0.0000 C   0  0  0  0  0  0           0  0  0
    2.7944   -3.3416    0.0000 C   0  0  0  0  0  0           0  0  0
    2.8098   -2.5197    0.0000 C   0  0  0  0  0  0           0  0  0
    2.1012   -2.0987    0.0000 N   0  0  0  0  0  0           0  0  0
    1.3808   -2.5026    0.0000 C   0  0  0  0  0  0           0  0  0
    1.3734   -3.3318    0.0000 C   0  0  0  0  0  0           0  0  0
    2.0827   -3.7491    0.0000 N   0  0  0  0  0  0           0  0  0
  5  6  1  0     0  0
 11 12  1  0     0  0
  1  2  1  0     0  0
 12 13  2  0     0  0
  6  7  2  0     0  0
 13 14  1  0     0  0
  3  4  1  0     0  0
 14 15  2  0     0  0
  7  8  1  0     0  0
 15 16  1  0     0  0
 16 17  2  0     0  0
 17 12  1  0     0  0
  8  9  2  0     0  0
  1 18  1  0     0  0
  9  4  1  0     0  0
 18 19  2  0     0  0
  4  5  2  0     0  0
 19 20  1  0     0  0
  8 10  1  0     0  0
 20 21  2  0     0  0
  1  3  2  0     0  0
 21 22  1  0     0  0
 10 11  1  0     0  0
 22 23  2  0     0  0
 23 18  1  0     0  0
M  END
>  <prID>
613

>  <IDDB>
186226

>  <pIC50_HIV_Integrase>
5.769551079

>  <Q>
-0.054059548

>  <Activity_Integrase>
Inactive_Integrase

NA
NA
NA
NA
$$$$

  Accelrys05311914322D 1   1.00000     0.00000     0

 23 25  0     0  0            999 V2000
   -1.3704   -0.9823    0.0000 O   0  0  0  0  0  0           0  0  0
   -0.5860   -0.7263    0.0000 C   0  0  0  0  0  0           0  0  0
   -0.5908    0.1027    0.0000 C   0  0  0  0  0  0           0  0  0
   -1.3767    0.3538    0.0000 C   0  0  0  0  0  0           0  0  0
   -1.8611   -0.3190    0.0000 N   0  0  0  0  0  0           0  0  0
   -1.6352    1.1372    0.0000 C   0  0  0  0  0  0           0  0  0
    0.0832   -1.2085    0.0000 C   0  0  0  0  0  0           0  0  0
    0.0855   -2.0335    0.0000 O   0  0  0  0  0  0           0  0  0
    0.7965   -0.7940    0.0000 C   0  0  0  0  0  0           0  0  0
    1.5121   -1.2045    0.0000 C   0  0  0  0  0  0           0  0  0
    1.5099   -2.0270    0.0000 N   0  0  0  0  0  0           0  0  0
    2.2247   -2.4374    0.0000 C   0  0  0  0  0  0           0  0  0
    2.9390   -2.0228    0.0000 N   0  0  0  0  0  0           0  0  0
    2.9340   -1.1936    0.0000 C   0  0  0  0  0  0           0  0  0
    2.2187   -0.7869    0.0000 C   0  0  0  0  0  0           0  0  0
    3.6459   -0.7765    0.0000 C   0  0  0  0  0  0           0  0  0
    4.3629   -1.1845    0.0000 C   0  0  0  0  0  0           0  0  0
    5.0748   -0.7675    0.0000 C   0  0  0  0  0  0           0  0  0
    5.7911   -1.1789    0.0000 C   0  0  0  0  0  0           0  0  0
    6.5024   -0.7626    0.0000 C   0  0  0  0  0  0           0  0  0
    6.4976    0.0633    0.0000 C   0  0  0  0  0  0           0  0  0
    5.7755    0.4710    0.0000 C   0  0  0  0  0  0           0  0  0
    5.0671    0.0523    0.0000 C   0  0  0  0  0  0           0  0  0
 11 12  1  0     0  0
  4  6  1  0     0  0
 12 13  2  0     0  0
  4  5  2  0     0  0
 13 14  1  0     0  0
  2  7  1  0     0  0
 14 15  2  0     0  0
 15 10  1  0     0  0
  2  3  2  0     0  0
 14 16  1  0     0  0
  7  8  1  0     0  0
 16 17  1  0     0  0
  1  2  1  0     0  0
 17 18  1  0     0  0
  7  9  2  0     0  0
 18 19  2  0     0  0
  3  4  1  0     0  0
 19 20  1  0     0  0
  9 10  1  0     0  0
 20 21  2  0     0  0
  5  1  1  0     0  0
 21 22  1  0     0  0
 10 11  2  0     0  0
 22 23  2  0     0  0
 23 18  1  0     0  0
M  END
>  <prID>
614

>  <IDDB>
186229

>  <pIC50_HIV_Integrase>
3.585026652

>  <Q>
-0.927680008

>  <Activity_Integrase>
Inactive_Integrase

NA
NA
NA
NA
$$$$

  Accelrys05311914332D 1   1.00000     0.00000     0

 19 20  0     0  0            999 V2000
   -1.8501   -3.1254    0.0000 C   0  0  0  0  0  0           0  0  0
   -3.2875   -3.1292    0.0000 C   0  0  0  0  0  0           0  0  0
   -2.5708   -2.7125    0.0000 C   0  0  0  0  0  0           0  0  0
   -4.0005   -2.7113    0.0000 C   0  0  0  0  0  0           0  0  0
   -4.7167   -3.1272    0.0000 C   0  0  0  0  0  0           0  0  0
   -4.7162   -3.9556    0.0000 C   0  0  0  0  0  0           0  0  0
   -3.9935   -4.3662    0.0000 C   0  0  0  0  0  0           0  0  0
   -3.2844   -3.9520    0.0000 C   0  0  0  0  0  0           0  0  0
   -5.4356   -2.7111    0.0000 O   0  0  0  0  0  0           0  0  0
   -5.4338   -4.3699    0.0000 O   0  0  0  0  0  0           0  0  0
   -4.0000   -5.1875    0.0000 O   0  0  0  0  0  0           0  0  0
   -1.8538   -3.9612    0.0000 C   0  0  0  0  0  0           0  0  0
   -1.1371   -4.3740    0.0000 N   0  0  0  0  0  0           0  0  0
   -0.4167   -3.9597    0.0000 C   0  0  0  0  0  0           0  0  0
   -0.4175   -3.1281    0.0000 N   0  0  0  0  0  0           0  0  0
   -1.1388   -2.7107    0.0000 C   0  0  0  0  0  0           0  0  0
   -1.1401   -1.8857    0.0000 O   0  0  0  0  0  0           0  0  0
   -2.5689   -4.3725    0.0000 O   0  0  0  0  0  0           0  0  0
    0.2976   -4.3725    0.0000 S   0  0  0  0  0  0           0  0  0
  4  5  1  0     0  0
  6 10  1  0     0  0
  3  1  2  0     0  0
  7 11  1  0     0  0
  1 12  1  0     0  0
  5  6  2  0     0  0
  6  7  1  0     0  0
  2  4  2  0     0  0
  7  8  2  0     0  0
  1 16  1  0     0  0
 12 13  1  0     0  0
 13 14  1  0     0  0
 14 15  1  0     0  0
 15 16  1  0     0  0
  8  2  1  0     0  0
 16 17  2  0     0  0
  2  3  1  0     0  0
 12 18  2  0     0  0
  5  9  1  0     0  0
 14 19  2  0     0  0
M  END
>  <prID>
615

>  <IDDB>
188013

>  <pIC50_HIV_Integrase>
5.795880017

>  <Q>
-1.339674595

>  <Activity_Integrase>
Inactive_Integrase

NA
NA
NA
NA
$$$$

  Accelrys05311914332D 1   1.00000     0.00000     0

 27 29  0     0  0            999 V2000
    0.5242   -3.0836    0.0000 C   0  0  0  0  0  0           0  0  0
   -0.1903   -2.6710    0.0000 C   0  0  0  0  0  0           0  0  0
   -0.9028   -3.0835    0.0000 C   0  0  0  0  0  0           0  0  0
   -0.9019   -3.9083    0.0000 C   0  0  0  0  0  0           0  0  0
   -0.1827   -4.3190    0.0000 C   0  0  0  0  0  0           0  0  0
    0.5269   -3.9043    0.0000 C   0  0  0  0  0  0           0  0  0
    4.8235   -3.0875    0.0000 C   0  0  0  0  0  0           0  0  0
    4.8182   -3.9148    0.0000 C   0  0  0  0  0  0           0  0  0
    5.5315   -4.3334    0.0000 C   0  0  0  0  0  0           0  0  0
    6.2506   -3.9215    0.0000 C   0  0  0  0  0  0           0  0  0
    6.2520   -3.0910    0.0000 C   0  0  0  0  0  0           0  0  0
    5.5380   -2.6803    0.0000 C   0  0  0  0  0  0           0  0  0
    1.9583   -3.0875    0.0000 C   0  0  0  0  0  0           0  0  0
    1.9583   -3.9167    0.0000 C   0  0  0  0  0  0           0  0  0
    2.6745   -4.3292    0.0000 S   0  0  0  0  0  0           0  0  0
    3.3907   -3.9167    0.0000 C   0  0  0  0  0  0           0  0  0
    3.3907   -3.0875    0.0000 C   0  0  0  0  0  0           0  0  0
    2.6745   -2.6708    0.0000 C   0  0  0  0  0  0           0  0  0
    4.1042   -2.6708    0.0000 C   0  0  0  0  0  0           0  0  0
    6.9625   -2.6708    0.0000 O   0  0  0  0  0  0           0  0  0
    6.9625   -4.3375    0.0000 O   0  0  0  0  0  0           0  0  0
    5.5250   -5.1625    0.0000 O   0  0  0  0  0  0           0  0  0
    2.6667   -1.8417    0.0000 O   0  0  0  0  0  0           0  0  0
    1.2417   -2.6750    0.0000 C   0  0  0  0  0  0           0  0  0
   -0.1875   -5.1417    0.0000 O   0  0  0  0  0  0           0  0  0
   -1.6208   -4.3167    0.0000 O   0  0  0  0  0  0           0  0  0
   -1.6208   -2.6708    0.0000 O   0  0  0  0  0  0           0  0  0
  1  2  2  0     0  0
  3  4  2  0     0  0
  7  8  2  0     0  0
  8  9  1  0     0  0
 13 18  1  0     0  0
 14 15  1  0     0  0
 15 16  1  0     0  0
 16 17  1  0     0  0
 17 18  1  0     0  0
  4  5  1  0     0  0
 17 19  2  0     0  0
 19  7  1  0     0  0
  9 10  2  0     0  0
 11 20  1  0     0  0
  2  3  1  0     0  0
 10 21  1  0     0  0
 10 11  1  0     0  0
  9 22  1  0     0  0
  5  6  2  0     0  0
 18 23  2  0     0  0
 11 12  2  0     0  0
 13 24  2  0     0  0
 24  1  1  0     0  0
 12  7  1  0     0  0
  5 25  1  0     0  0
 13 14  1  0     0  0
  4 26  1  0     0  0
  6  1  1  0     0  0
  3 27  1  0     0  0
M  END
>  <prID>
616

>  <IDDB>
188014

>  <pIC50_HIV_Integrase>
6.301029996

>  <Q>
-2.795868883

>  <Activity_Integrase>
Active_Integrase

NA
NA
NA
NA
$$$$

  Accelrys05311914332D 1   1.00000     0.00000     0

 27 29  0     0  0            999 V2000
    2.5951   -0.6795    0.0000 C   0  0  0  0  0  0           0  0  0
    1.8805   -0.2669    0.0000 C   0  0  0  0  0  0           0  0  0
    1.1681   -0.6793    0.0000 C   0  0  0  0  0  0           0  0  0
    1.1689   -1.5042    0.0000 C   0  0  0  0  0  0           0  0  0
    1.8882   -1.9149    0.0000 C   0  0  0  0  0  0           0  0  0
    2.5977   -1.5001    0.0000 C   0  0  0  0  0  0           0  0  0
    6.8944   -0.6833    0.0000 C   0  0  0  0  0  0           0  0  0
    6.8891   -1.5107    0.0000 C   0  0  0  0  0  0           0  0  0
    7.6024   -1.9292    0.0000 C   0  0  0  0  0  0           0  0  0
    8.3215   -1.5174    0.0000 C   0  0  0  0  0  0           0  0  0
    8.3228   -0.6868    0.0000 C   0  0  0  0  0  0           0  0  0
    7.6089   -0.2762    0.0000 C   0  0  0  0  0  0           0  0  0
    4.0292   -0.6833    0.0000 C   0  0  0  0  0  0           0  0  0
    4.0292   -1.5125    0.0000 C   0  0  0  0  0  0           0  0  0
    4.7454   -1.9250    0.0000 O   0  0  0  0  0  0           0  0  0
    5.4615   -1.5125    0.0000 C   0  0  0  0  0  0           0  0  0
    5.4615   -0.6833    0.0000 C   0  0  0  0  0  0           0  0  0
    4.7454   -0.2667    0.0000 C   0  0  0  0  0  0           0  0  0
    6.1750   -0.2667    0.0000 C   0  0  0  0  0  0           0  0  0
    9.0333   -0.2667    0.0000 O   0  0  0  0  0  0           0  0  0
    9.0333   -1.9333    0.0000 O   0  0  0  0  0  0           0  0  0
    7.5958   -2.7583    0.0000 O   0  0  0  0  0  0           0  0  0
    4.7375    0.5625    0.0000 O   0  0  0  0  0  0           0  0  0
    3.3125   -0.2708    0.0000 C   0  0  0  0  0  0           0  0  0
    1.8833   -2.7375    0.0000 O   0  0  0  0  0  0           0  0  0
    0.4500   -1.9125    0.0000 O   0  0  0  0  0  0           0  0  0
    0.4500   -0.2667    0.0000 O   0  0  0  0  0  0           0  0  0
  1  2  2  0     0  0
  3  4  2  0     0  0
  7  8  2  0     0  0
  8  9  1  0     0  0
 13 18  1  0     0  0
 14 15  1  0     0  0
 15 16  1  0     0  0
 16 17  1  0     0  0
 17 18  1  0     0  0
  4  5  1  0     0  0
 17 19  2  0     0  0
 19  7  1  0     0  0
  9 10  2  0     0  0
 11 20  1  0     0  0
  2  3  1  0     0  0
 10 21  1  0     0  0
 10 11  1  0     0  0
  9 22  1  0     0  0
  5  6  2  0     0  0
 18 23  2  0     0  0
 11 12  2  0     0  0
 13 24  2  0     0  0
 24  1  1  0     0  0
 12  7  1  0     0  0
  5 25  1  0     0  0
 13 14  1  0     0  0
  4 26  1  0     0  0
  6  1  1  0     0  0
  3 27  1  0     0  0
M  END
>  <prID>
617

>  <IDDB>
188015

>  <pIC50_HIV_Integrase>
5.045757491

>  <Q>
-3.594824114

>  <Activity_Integrase>
Inactive_Integrase

NA
NA
NA
NA
$$$$

  Accelrys05311914332D 1   1.00000     0.00000     0

 34 37  0     0  0            999 V2000
    5.8610   -4.9458    0.0000 C   0  0  0  0  0  0           0  0  0
    5.8557   -5.7690    0.0000 C   0  0  0  0  0  0           0  0  0
    6.5649   -6.1834    0.0000 C   0  0  0  0  0  0           0  0  0
    7.2798   -5.7757    0.0000 C   0  0  0  0  0  0           0  0  0
    7.2811   -4.9493    0.0000 C   0  0  0  0  0  0           0  0  0
    6.5714   -4.5387    0.0000 C   0  0  0  0  0  0           0  0  0
    3.0034   -2.4586    0.0000 C   0  0  0  0  0  0           0  0  0
    2.2889   -2.0460    0.0000 C   0  0  0  0  0  0           0  0  0
    1.5764   -2.4585    0.0000 C   0  0  0  0  0  0           0  0  0
    1.5772   -3.2833    0.0000 C   0  0  0  0  0  0           0  0  0
    2.2965   -3.6940    0.0000 C   0  0  0  0  0  0           0  0  0
    3.0060   -3.2793    0.0000 C   0  0  0  0  0  0           0  0  0
    7.3027   -2.4625    0.0000 C   0  0  0  0  0  0           0  0  0
    7.2974   -3.2898    0.0000 C   0  0  0  0  0  0           0  0  0
    8.0107   -3.7084    0.0000 C   0  0  0  0  0  0           0  0  0
    8.7298   -3.2965    0.0000 C   0  0  0  0  0  0           0  0  0
    8.7311   -2.4660    0.0000 C   0  0  0  0  0  0           0  0  0
    8.0172   -2.0553    0.0000 C   0  0  0  0  0  0           0  0  0
    4.4375   -2.4625    0.0000 C   0  0  0  0  0  0           0  0  0
    4.4375   -3.2917    0.0000 C   0  0  0  0  0  0           0  0  0
    5.1537   -3.7042    0.0000 N   0  0  3  0  0  0           0  0  0
    5.8699   -3.2917    0.0000 C   0  0  0  0  0  0           0  0  0
    5.8699   -2.4625    0.0000 C   0  0  0  0  0  0           0  0  0
    5.1537   -2.0458    0.0000 C   0  0  0  0  0  0           0  0  0
    6.5833   -2.0458    0.0000 C   0  0  0  0  0  0           0  0  0
    9.4417   -2.0458    0.0000 O   0  0  0  0  0  0           0  0  0
    9.4417   -3.7125    0.0000 O   0  0  0  0  0  0           0  0  0
    8.0042   -4.5375    0.0000 O   0  0  0  0  0  0           0  0  0
    5.1458   -1.2167    0.0000 O   0  0  0  0  0  0           0  0  0
    3.7208   -2.0500    0.0000 C   0  0  0  0  0  0           0  0  0
    2.2917   -4.5167    0.0000 O   0  0  0  0  0  0           0  0  0
    0.8583   -3.6917    0.0000 O   0  0  0  0  0  0           0  0  0
    0.8583   -2.0458    0.0000 O   0  0  0  0  0  0           0  0  0
    5.1458   -4.5292    0.0000 C   0  0  0  0  0  0           0  0  0
  8  9  1  0     0  0
 17 18  2  0     0  0
 18 13  1  0     0  0
 19 20  1  0     0  0
  4  5  1  0     0  0
  9 10  2  0     0  0
  2  3  1  0     0  0
 10 11  1  0     0  0
  5  6  2  0     0  0
 11 12  2  0     0  0
 19 24  1  0     0  0
 20 21  1  0     0  0
 21 22  1  0     0  0
 22 23  1  0     0  0
 23 24  1  0     0  0
 12  7  1  0     0  0
 23 25  2  0     0  0
 25 13  1  0     0  0
  6  1  1  0     0  0
 17 26  1  0     0  0
  1  2  2  0     0  0
 16 27  1  0     0  0
 13 14  2  0     0  0
 15 28  1  0     0  0
  3  4  2  0     0  0
 24 29  2  0     0  0
 14 15  1  0     0  0
 19 30  2  0     0  0
 30  7  1  0     0  0
  7  8  2  0     0  0
 11 31  1  0     0  0
 15 16  2  0     0  0
 10 32  1  0     0  0
  9 33  1  0     0  0
 16 17  1  0     0  0
 21 34  1  0     0  0
 34  1  1  0     0  0
M  END
>  <prID>
618

>  <IDDB>
188016

>  <pIC50_HIV_Integrase>
5.958607315

>  <Q>
-2.505893654

>  <Activity_Integrase>
Inactive_Integrase

NA
NA
NA
NA
$$$$

  Accelrys05311914332D 1   1.00000     0.00000     0

 31 33  0     0  0            999 V2000
    5.9194   -3.7541    0.0000 C   0  0  0  0  0  0           0  0  0
    3.0617   -1.2670    0.0000 C   0  0  0  0  0  0           0  0  0
    2.3472   -0.8544    0.0000 C   0  0  0  0  0  0           0  0  0
    1.6347   -1.2668    0.0000 C   0  0  0  0  0  0           0  0  0
    1.6356   -2.0917    0.0000 C   0  0  0  0  0  0           0  0  0
    2.3548   -2.5024    0.0000 C   0  0  0  0  0  0           0  0  0
    3.0644   -2.0876    0.0000 C   0  0  0  0  0  0           0  0  0
    7.3610   -1.2708    0.0000 C   0  0  0  0  0  0           0  0  0
    7.3557   -2.0982    0.0000 C   0  0  0  0  0  0           0  0  0
    8.0690   -2.5167    0.0000 C   0  0  0  0  0  0           0  0  0
    8.7881   -2.1049    0.0000 C   0  0  0  0  0  0           0  0  0
    8.7895   -1.2743    0.0000 C   0  0  0  0  0  0           0  0  0
    8.0755   -0.8637    0.0000 C   0  0  0  0  0  0           0  0  0
    4.4958   -1.2708    0.0000 C   0  0  0  0  0  0           0  0  0
    4.4958   -2.1000    0.0000 C   0  0  0  0  0  0           0  0  0
    5.2120   -2.5125    0.0000 N   0  0  3  0  0  0           0  0  0
    5.9282   -2.1000    0.0000 C   0  0  0  0  0  0           0  0  0
    5.9282   -1.2708    0.0000 C   0  0  0  0  0  0           0  0  0
    5.2120   -0.8542    0.0000 C   0  0  0  0  0  0           0  0  0
    6.6417   -0.8542    0.0000 C   0  0  0  0  0  0           0  0  0
    9.5000   -0.8542    0.0000 O   0  0  0  0  0  0           0  0  0
    9.5000   -2.5208    0.0000 O   0  0  0  0  0  0           0  0  0
    8.0625   -3.3458    0.0000 O   0  0  0  0  0  0           0  0  0
    5.2042   -0.0250    0.0000 O   0  0  0  0  0  0           0  0  0
    3.7792   -0.8583    0.0000 C   0  0  0  0  0  0           0  0  0
    2.3500   -3.3250    0.0000 O   0  0  0  0  0  0           0  0  0
    0.9167   -2.5000    0.0000 O   0  0  0  0  0  0           0  0  0
    0.9167   -0.8542    0.0000 O   0  0  0  0  0  0           0  0  0
    5.2042   -3.3375    0.0000 C   0  0  0  0  0  0           0  0  0
    5.9125   -4.5750    0.0000 O   0  0  0  0  0  0           0  0  0
    6.6292   -3.3333    0.0000 O   0  0  0  0  0  0           0  0  0
  9 10  1  0     0  0
 14 19  1  0     0  0
 15 16  1  0     0  0
 16 17  1  0     0  0
 17 18  1  0     0  0
 18 19  1  0     0  0
  5  6  1  0     0  0
 18 20  2  0     0  0
 20  8  1  0     0  0
 10 11  2  0     0  0
 12 21  1  0     0  0
  3  4  1  0     0  0
 11 22  1  0     0  0
 11 12  1  0     0  0
 10 23  1  0     0  0
  6  7  2  0     0  0
 19 24  2  0     0  0
 12 13  2  0     0  0
 14 25  2  0     0  0
 25  2  1  0     0  0
 13  8  1  0     0  0
  6 26  1  0     0  0
 14 15  1  0     0  0
  5 27  1  0     0  0
  7  2  1  0     0  0
  4 28  1  0     0  0
  2  3  2  0     0  0
 16 29  1  0     0  0
 29  1  1  0     0  0
  4  5  2  0     0  0
  1 30  1  0     0  0
  8  9  2  0     0  0
  1 31  2  0     0  0
M  END
>  <prID>
619

>  <IDDB>
188017

>  <pIC50_HIV_Integrase>
6.522878745

>  <Q>
-4.190569585

>  <Activity_Integrase>
Active_Integrase

NA
NA
NA
NA
$$$$

  Accelrys05311914332D 1   1.00000     0.00000     0

 22 23  0     0  0            999 V2000
    2.8417   -2.3834    0.0000 N   0  0  3  0  0  0           0  0  0
    3.5167   -1.9042    0.0000 C   0  0  0  0  0  0           0  0  0
    4.2333   -2.3209    0.0000 C   0  0  0  0  0  0           0  0  0
    4.9500   -1.9084    0.0000 C   0  0  0  0  0  0           0  0  0
    5.6709   -2.3209    0.0000 C   0  0  0  0  0  0           0  0  0
    6.3916   -1.9125    0.0000 C   0  0  0  0  0  0           0  0  0
    2.1708   -1.9042    0.0000 C   0  0  0  0  0  0           0  0  0
    2.8417   -3.2166    0.0000 C   0  0  0  0  0  0           0  0  0
    3.2584   -1.1125    0.0000 C   0  0  0  0  0  0           0  0  0
    2.4292   -1.1125    0.0000 C   0  0  0  0  0  0           0  0  0
    5.6709   -3.1500    0.0000 O   0  0  0  0  0  0           0  0  0
    2.1250   -3.6292    0.0000 C   0  0  0  0  0  0           0  0  0
    0.6917   -4.4542    0.0000 C   0  0  0  0  0  0           0  0  0
    2.1291   -4.4542    0.0000 C   0  0  0  0  0  0           0  0  0
    1.4125   -3.2083    0.0000 C   0  0  0  0  0  0           0  0  0
    0.6917   -3.6292    0.0000 C   0  0  0  0  0  0           0  0  0
    1.4125   -4.8709    0.0000 C   0  0  0  0  0  0           0  0  0
    7.1000   -2.3208    0.0000 C   0  0  0  0  0  0           0  0  0
    7.0958   -3.1500    0.0000 O   0  0  0  0  0  0           0  0  0
    7.8167   -1.9042    0.0000 C   0  0  0  0  0  0           0  0  0
    8.5333   -2.3167    0.0000 O   0  0  0  0  0  0           0  0  0
    7.8125   -1.0750    0.0000 O   0  0  0  0  0  0           0  0  0
  6  5  1  0     0  0
  7  1  1  0     0  0
  8  1  1  0     0  0
  9  2  2  0     0  0
 10  7  2  0     0  0
 11  5  2  0     0  0
 12  8  1  0     0  0
 13 17  1  0     0  0
 14 12  1  0     0  0
 15 12  2  0     0  0
 16 15  1  0     0  0
 17 14  2  0     0  0
 10  9  1  0     0  0
 13 16  2  0     0  0
  6 18  2  0     0  0
  2  1  1  0     0  0
 18 19  1  0     0  0
  3  2  1  0     0  0
 18 20  1  0     0  0
  4  3  2  0     0  0
 20 21  1  0     0  0
  5  4  1  0     0  0
 20 22  2  0     0  0
M  END
>  <prID>
620

>  <IDDB>
188020

>  <pIC50_HIV_Integrase>
5.15490196

>  <Q>
0.08248033

>  <Activity_Integrase>
Inactive_Integrase

NA
NA
NA
NA
$$$$

  Accelrys05311914322D 1   1.00000     0.00000     0

 22 24  0     0  0            999 V2000
    2.8441   -3.4361    0.0000 C   0  0  0  0  0  0           0  0  0
    2.1343   -3.0109    0.0000 C   0  0  0  0  0  0           0  0  0
    1.4133   -3.4130    0.0000 C   0  0  0  0  0  0           0  0  0
    1.4009   -4.2401    0.0000 C   0  0  0  0  0  0           0  0  0
    2.1155   -4.6634    0.0000 C   0  0  0  0  0  0           0  0  0
    2.8335   -4.2589    0.0000 C   0  0  0  0  0  0           0  0  0
    3.5458   -4.6708    0.0000 C   0  0  0  0  0  0           0  0  0
    4.2583   -4.2542    0.0000 C   0  0  0  0  0  0           0  0  0
    0.6958   -3.0000    0.0000 F   0  0  0  0  0  0           0  0  0
    5.7005   -3.4531    0.0000 C   0  0  0  0  0  0           0  0  0
    4.9921   -3.0302    0.0000 C   0  0  0  0  0  0           0  0  0
    4.2765   -3.4322    0.0000 C   0  0  0  0  0  0           0  0  0
    4.9704   -4.6758    0.0000 C   0  0  0  0  0  0           0  0  0
    5.6932   -4.2781    0.0000 N   0  0  0  0  0  0           0  0  0
    6.4220   -3.0493    0.0000 C   0  0  0  0  0  0           0  0  0
    8.0513   -1.5938    0.0000 C   0  0  0  0  0  0           0  0  0
    7.5135   -2.2773    0.0000 N   0  0  3  0  0  0           0  0  0
    6.6885   -2.2678    0.0000 C   0  0  0  0  0  0           0  0  0
    7.0864   -3.5433    0.0000 C   0  0  0  0  0  0           0  0  0
    7.7570   -3.0643    0.0000 C   0  0  0  0  0  0           0  0  0
    7.0839   -4.3402    0.0000 O   0  0  0  0  0  0           0  0  0
    8.6287   -3.3637    0.0000 O   0  0  0  0  0  0           0  0  0
  5  6  2  0     0  0
  6  1  1  0     0  0
  1  2  2  0     0  0
 10 14  1  0     0  0
 11 12  1  0     0  0
 12  8  2  0     0  0
  8 13  1  0     0  0
 13 14  2  0     0  0
  6  7  1  0     0  0
 10 15  1  0     0  0
  3  4  2  0     0  0
  7  8  1  0     0  0
 16 17  1  0     0  0
 17 18  1  0     0  0
  3  9  1  0     0  0
 10 11  2  0     0  0
 18 15  1  0     0  0
 15 19  2  0     0  0
 19 20  1  0     0  0
 20 17  1  0     0  0
  4  5  1  0     0  0
 19 21  1  0     0  0
  2  3  1  0     0  0
 20 22  2  0     0  0
M  END
>  <prID>
621

>  <IDDB>
188703

>  <pIC50_HIV_Integrase>
7.431798276

>  <Q>
-2.135898964

>  <Activity_Integrase>
Active_Integrase

NA
NA
NA
NA
$$$$

  Accelrys05311914332D 1   1.00000     0.00000     0

 14 14  0     0  0            999 V2000
    0.5694   -4.0250    0.0000 C   0  0  0  0  0  0           0  0  0
    0.5682   -4.8523    0.0000 C   0  0  0  0  0  0           0  0  0
    1.2831   -5.2652    0.0000 C   0  0  0  0  0  0           0  0  0
    1.9995   -4.8519    0.0000 C   0  0  0  0  0  0           0  0  0
    1.9966   -4.0213    0.0000 C   0  0  0  0  0  0           0  0  0
    1.2813   -3.6122    0.0000 C   0  0  0  0  0  0           0  0  0
    2.7096   -3.6061    0.0000 C   0  0  0  0  0  0           0  0  0
    3.4256   -4.0159    0.0000 C   0  0  0  0  0  0           0  0  0
    2.7064   -2.7811    0.0000 O   0  0  0  0  0  0           0  0  0
    4.1385   -3.6008    0.0000 C   0  0  0  0  0  0           0  0  0
    4.8545   -4.0106    0.0000 C   0  0  0  0  0  0           0  0  0
    4.1354   -2.7758    0.0000 O   0  0  0  0  0  0           0  0  0
    4.8576   -4.8356    0.0000 O   0  0  0  0  0  0           0  0  0
    5.5674   -3.5954    0.0000 O   0  0  0  0  0  0           0  0  0
  5  7  1  0     0  0
  3  4  2  0     0  0
  7  8  1  0     0  0
  7  9  2  0     0  0
  4  5  1  0     0  0
  8 10  2  0     0  0
  2  3  1  0     0  0
 10 11  1  0     0  0
  5  6  2  0     0  0
 10 12  1  0     0  0
  6  1  1  0     0  0
 11 13  2  0     0  0
  1  2  2  0     0  0
 11 14  1  0     0  0
M  END
>  <prID>
622

>  <IDDB>
189854

>  <pIC50_HIV_Integrase>
4.161150909

>  <Q>
-0.688947929

>  <Activity_Integrase>
Inactive_Integrase

NA
NA
NA
NA
$$$$

  Accelrys05311914332D 1   1.00000     0.00000     0

 13 14  0     0  0            999 V2000
    0.1709   -5.7626    0.0000 C   0  0  0  0  0  0           0  0  0
    0.1709   -6.9471    0.0000 C   0  0  0  0  0  0           0  0  0
    1.1928   -7.5383    0.0000 C   0  0  0  0  0  0           0  0  0
    1.1902   -5.1716    0.0000 C   0  0  0  0  0  0           0  0  0
    2.2143   -5.7573    0.0000 C   0  0  0  0  0  0           0  0  0
    2.2143   -6.9435    0.0000 C   0  0  0  0  0  0           0  0  0
    3.2334   -7.5348    0.0000 C   0  0  0  0  0  0           0  0  0
    4.2624   -6.9464    0.0000 N   0  0  3  0  0  0           0  0  0
    4.2624   -5.7602    0.0000 C   0  0  0  0  0  0           0  0  0
    3.2368   -5.1625    0.0000 C   0  0  0  0  0  0           0  0  0
    5.2836   -7.5398    0.0000 O   0  0  0  0  0  0           0  0  0
    5.2883   -5.1722    0.0000 O   0  0  0  0  0  0           0  0  0
    3.2334   -8.7160    0.0000 O   0  0  0  0  0  0           0  0  0
  3  6  2  0     0  0
  1  2  2  0     0  0
  5  4  2  0     0  0
  4  1  1  0     0  0
  5 10  1  0     0  0
  6  7  1  0     0  0
  7  8  1  0     0  0
  8  9  1  0     0  0
  9 10  1  0     0  0
  5  6  1  0     0  0
  8 11  1  0     0  0
  9 12  2  0     0  0
  2  3  1  0     0  0
  7 13  2  0     0  0
M  END
>  <prID>
623

>  <IDDB>
189862

>  <pIC50_HIV_Integrase>
5.1505532195

>  <Q>
-0.502859436

>  <Activity_Integrase>
Inactive_Integrase

NA
NA
NA
NA
$$$$

  Accelrys05311914332D 1   1.00000     0.00000     0

 25 27  0     0  0            999 V2000
   -3.3958   -0.9042    0.0000 C   0  0  0  0  0  0           0  0  0
   -2.6792   -0.4875    0.0000 C   0  0  0  0  0  0           0  0  0
    0.1875   -0.4792    0.0000 C   0  0  0  0  0  0           0  0  0
    0.9042   -0.8917    0.0000 C   0  0  0  0  0  0           0  0  0
    0.9040   -1.7181    0.0000 C   0  0  0  0  0  0           0  0  0
    1.6199   -2.1264    0.0000 C   0  0  0  0  0  0           0  0  0
    2.3307   -1.7134    0.0000 C   0  0  0  0  0  0           0  0  0
    2.3254   -0.8838    0.0000 C   0  0  0  0  0  0           0  0  0
    1.6132   -0.4751    0.0000 C   0  0  0  0  0  0           0  0  0
   -4.1089   -0.4863    0.0000 C   0  0  0  0  0  0           0  0  0
   -4.8250   -0.9022    0.0000 C   0  0  0  0  0  0           0  0  0
   -4.8245   -1.7306    0.0000 C   0  0  0  0  0  0           0  0  0
   -4.1018   -2.1412    0.0000 C   0  0  0  0  0  0           0  0  0
   -3.3928   -1.7270    0.0000 C   0  0  0  0  0  0           0  0  0
    3.0413   -0.4624    0.0000 Cl  0  0  0  0  0  0           0  0  0
    3.0512   -2.1227    0.0000 Cl  0  0  0  0  0  0           0  0  0
   -5.5440   -0.4861    0.0000 Cl  0  0  0  0  0  0           0  0  0
   -5.5421   -2.1449    0.0000 Cl  0  0  0  0  0  0           0  0  0
   -1.2476    0.3458    0.0000 O   0  0  0  0  0  0           0  0  0
   -1.2458   -0.4833    0.0000 C   0  0  0  0  0  0           0  0  0
   -1.9625   -0.9000    0.0000 C   0  0  0  0  0  0           0  0  0
   -1.9600   -1.7244    0.0000 C   0  0  0  0  0  0           0  0  0
   -1.2425   -2.1384    0.0000 O   0  0  0  0  0  0           0  0  0
   -0.5258   -1.7217    0.0000 C   0  0  0  0  0  0           0  0  0
   -0.5267   -0.8911    0.0000 C   0  0  0  0  0  0           0  0  0
 11 12  2  0     0  0
  5  6  1  0     0  0
 12 13  1  0     0  0
 25  3  2  0     0  0
 13 14  2  0     0  0
 14  1  1  0     0  0
  6  7  2  0     0  0
  8 15  1  0     0  0
  1  2  1  0     0  0
  7 16  1  0     0  0
  7  8  1  0     0  0
 11 17  1  0     0  0
  3  4  1  0     0  0
 12 18  1  0     0  0
  8  9  2  0     0  0
 20 19  2  0     0  0
 20 21  1  0     0  0
  9  4  1  0     0  0
  2 21  2  0     0  0
  1 10  2  0     0  0
  4  5  2  0     0  0
 10 11  1  0     0  0
 20 25  1  0     0  0
 21 22  1  0     0  0
 22 23  1  0     0  0
 23 24  1  0     0  0
 24 25  1  0     0  0
M  END
>  <prID>
624

>  <IDDB>
190946

>  <pIC50_HIV_Integrase>
5.045757491

>  <Q>
-2.319768884

>  <Activity_Integrase>
Inactive_Integrase

NA
NA
NA
NA
$$$$

  Accelrys05311914332D 1   1.00000     0.00000     0

 26 28  0     0  0            999 V2000
   -0.2833   -0.3542    0.0000 C   0  0  0  0  0  0           0  0  0
    0.4333    0.0625    0.0000 C   0  0  0  0  0  0           0  0  0
    3.3000    0.0708    0.0000 C   0  0  0  0  0  0           0  0  0
    4.0167   -0.3417    0.0000 C   0  0  0  0  0  0           0  0  0
    4.0165   -1.1681    0.0000 C   0  0  0  0  0  0           0  0  0
    4.7324   -1.5764    0.0000 C   0  0  0  0  0  0           0  0  0
    5.4432   -1.1634    0.0000 C   0  0  0  0  0  0           0  0  0
    5.4379   -0.3338    0.0000 C   0  0  0  0  0  0           0  0  0
    4.7257    0.0749    0.0000 C   0  0  0  0  0  0           0  0  0
   -0.9964    0.0637    0.0000 C   0  0  0  0  0  0           0  0  0
   -1.7125   -0.3522    0.0000 C   0  0  0  0  0  0           0  0  0
   -1.7120   -1.1806    0.0000 C   0  0  0  0  0  0           0  0  0
   -0.9893   -1.5912    0.0000 C   0  0  0  0  0  0           0  0  0
   -0.2803   -1.1770    0.0000 C   0  0  0  0  0  0           0  0  0
    6.1538    0.0876    0.0000 O   0  0  0  0  0  0           0  0  0
    6.1637   -1.5727    0.0000 O   0  0  0  0  0  0           0  0  0
   -2.4315    0.0639    0.0000 O   0  0  0  0  0  0           0  0  0
   -2.4296   -1.5949    0.0000 O   0  0  0  0  0  0           0  0  0
    1.8649    0.8958    0.0000 O   0  0  0  0  0  0           0  0  0
    1.8667    0.0667    0.0000 C   0  0  0  0  0  0           0  0  0
    1.1500   -0.3500    0.0000 C   0  0  0  0  0  0           0  0  0
    1.1525   -1.1744    0.0000 C   0  0  0  0  0  0           0  0  0
    1.8700   -1.5884    0.0000 N   0  0  3  0  0  0           0  0  0
    2.5867   -1.1717    0.0000 C   0  0  0  0  0  0           0  0  0
    2.5858   -0.3411    0.0000 C   0  0  0  0  0  0           0  0  0
    1.8714   -2.4134    0.0000 C   0  0  0  0  0  0           0  0  0
  5  6  1  0     0  0
 12 13  1  0     0  0
 25  3  2  0     0  0
 13 14  2  0     0  0
 14  1  1  0     0  0
  6  7  2  0     0  0
  8 15  1  0     0  0
  1  2  1  0     0  0
  7 16  1  0     0  0
  7  8  1  0     0  0
 11 17  1  0     0  0
  3  4  1  0     0  0
 12 18  1  0     0  0
  8  9  2  0     0  0
 20 19  2  0     0  0
 20 21  1  0     0  0
  9  4  1  0     0  0
  2 21  2  0     0  0
  1 10  2  0     0  0
  4  5  2  0     0  0
 10 11  1  0     0  0
 20 25  1  0     0  0
 21 22  1  0     0  0
 22 23  1  0     0  0
 23 24  1  0     0  0
 24 25  1  0     0  0
 11 12  2  0     0  0
 23 26  1  0     0  0
M  END
>  <prID>
625

>  <IDDB>
190952

>  <pIC50_HIV_Integrase>
6.045757491

>  <Q>
-1.241354393

>  <Activity_Integrase>
Active_Integrase

NA
NA
NA
NA
$$$$

  Accelrys05311914332D 1   1.00000     0.00000     0

 27 29  0     0  0            999 V2000
   -3.2875   -0.4083    0.0000 C   0  0  0  0  0  0           0  0  0
   -2.5708    0.0083    0.0000 C   0  0  0  0  0  0           0  0  0
    0.2958    0.0167    0.0000 C   0  0  0  0  0  0           0  0  0
    1.0125   -0.3958    0.0000 C   0  0  0  0  0  0           0  0  0
    1.0124   -1.2223    0.0000 C   0  0  0  0  0  0           0  0  0
    1.7282   -1.6305    0.0000 C   0  0  0  0  0  0           0  0  0
    2.4390   -1.2176    0.0000 C   0  0  0  0  0  0           0  0  0
    2.4338   -0.3880    0.0000 C   0  0  0  0  0  0           0  0  0
    1.7215    0.0207    0.0000 C   0  0  0  0  0  0           0  0  0
   -4.0005    0.0096    0.0000 C   0  0  0  0  0  0           0  0  0
   -4.7167   -0.4064    0.0000 C   0  0  0  0  0  0           0  0  0
   -4.7162   -1.2348    0.0000 C   0  0  0  0  0  0           0  0  0
   -3.9935   -1.6454    0.0000 C   0  0  0  0  0  0           0  0  0
   -3.2844   -1.2312    0.0000 C   0  0  0  0  0  0           0  0  0
    3.1496    0.0335    0.0000 O   0  0  0  0  0  0           0  0  0
    3.1595   -1.6269    0.0000 O   0  0  0  0  0  0           0  0  0
   -5.4356    0.0097    0.0000 O   0  0  0  0  0  0           0  0  0
   -5.4338   -1.6491    0.0000 O   0  0  0  0  0  0           0  0  0
   -1.1393    0.8417    0.0000 O   0  0  0  0  0  0           0  0  0
   -1.1375    0.0125    0.0000 C   0  0  0  0  0  0           0  0  0
   -1.8542   -0.4042    0.0000 C   0  0  0  0  0  0           0  0  0
   -1.8517   -1.2286    0.0000 C   0  0  0  0  0  0           0  0  0
   -1.1342   -1.6426    0.0000 N   0  0  3  0  0  0           0  0  0
   -0.4175   -1.2259    0.0000 C   0  0  0  0  0  0           0  0  0
   -0.4183   -0.3952    0.0000 C   0  0  0  0  0  0           0  0  0
   -1.1328   -2.4676    0.0000 C   0  0  0  0  0  0           0  0  0
   -1.8466   -2.8812    0.0000 C   0  0  0  0  0  0           0  0  0
 12 13  1  0     0  0
 25  3  2  0     0  0
 13 14  2  0     0  0
 14  1  1  0     0  0
  6  7  2  0     0  0
  8 15  1  0     0  0
  1  2  1  0     0  0
  7 16  1  0     0  0
  7  8  1  0     0  0
 11 17  1  0     0  0
  3  4  1  0     0  0
 12 18  1  0     0  0
  8  9  2  0     0  0
 20 19  2  0     0  0
 20 21  1  0     0  0
  9  4  1  0     0  0
  2 21  2  0     0  0
  1 10  2  0     0  0
  4  5  2  0     0  0
 10 11  1  0     0  0
 20 25  1  0     0  0
 21 22  1  0     0  0
 22 23  1  0     0  0
 23 24  1  0     0  0
 24 25  1  0     0  0
 11 12  2  0     0  0
 23 26  1  0     0  0
  5  6  1  0     0  0
 26 27  1  0     0  0
M  END
>  <prID>
626

>  <IDDB>
190955

>  <pIC50_HIV_Integrase>
5.958607315

>  <Q>
-1.822150166

>  <Activity_Integrase>
Inactive_Integrase

NA
NA
NA
NA
$$$$

  Accelrys05311914332D 1   1.00000     0.00000     0

 32 35  0     0  0            999 V2000
   -3.2875   -0.2042    0.0000 C   0  0  0  0  0  0           0  0  0
   -2.5708    0.2125    0.0000 C   0  0  0  0  0  0           0  0  0
    0.2958    0.2208    0.0000 C   0  0  0  0  0  0           0  0  0
    1.0125   -0.1917    0.0000 C   0  0  0  0  0  0           0  0  0
    1.0124   -1.0181    0.0000 C   0  0  0  0  0  0           0  0  0
    1.7282   -1.4264    0.0000 C   0  0  0  0  0  0           0  0  0
    2.4390   -1.0134    0.0000 C   0  0  0  0  0  0           0  0  0
    2.4338   -0.1838    0.0000 C   0  0  0  0  0  0           0  0  0
    1.7215    0.2249    0.0000 C   0  0  0  0  0  0           0  0  0
   -4.0005    0.2137    0.0000 C   0  0  0  0  0  0           0  0  0
   -4.7167   -0.2022    0.0000 C   0  0  0  0  0  0           0  0  0
   -4.7162   -1.0306    0.0000 C   0  0  0  0  0  0           0  0  0
   -3.9935   -1.4412    0.0000 C   0  0  0  0  0  0           0  0  0
   -3.2844   -1.0270    0.0000 C   0  0  0  0  0  0           0  0  0
    3.1496    0.2376    0.0000 O   0  0  0  0  0  0           0  0  0
    3.1595   -1.4227    0.0000 O   0  0  0  0  0  0           0  0  0
   -5.4356    0.2139    0.0000 O   0  0  0  0  0  0           0  0  0
   -5.4338   -1.4449    0.0000 O   0  0  0  0  0  0           0  0  0
   -1.1393    1.0458    0.0000 O   0  0  0  0  0  0           0  0  0
   -1.1375    0.2167    0.0000 C   0  0  0  0  0  0           0  0  0
   -1.8542   -0.2000    0.0000 C   0  0  0  0  0  0           0  0  0
   -1.8517   -1.0244    0.0000 C   0  0  0  0  0  0           0  0  0
   -1.1342   -1.4384    0.0000 N   0  0  3  0  0  0           0  0  0
   -0.4175   -1.0217    0.0000 C   0  0  0  0  0  0           0  0  0
   -0.4183   -0.1911    0.0000 C   0  0  0  0  0  0           0  0  0
   -1.1328   -2.2634    0.0000 C   0  0  0  0  0  0           0  0  0
   -1.8466   -2.6771    0.0000 C   0  0  0  0  0  0           0  0  0
   -2.5599   -2.2645    0.0000 C   0  0  0  0  0  0           0  0  0
   -3.2732   -2.6775    0.0000 C   0  0  0  0  0  0           0  0  0
   -3.2723   -3.5034    0.0000 C   0  0  0  0  0  0           0  0  0
   -2.5521   -3.9145    0.0000 C   0  0  0  0  0  0           0  0  0
   -1.8417   -3.4992    0.0000 C   0  0  0  0  0  0           0  0  0
  8 15  1  0     0  0
  1  2  1  0     0  0
  7 16  1  0     0  0
  7  8  1  0     0  0
 11 17  1  0     0  0
  3  4  1  0     0  0
 12 18  1  0     0  0
  8  9  2  0     0  0
 20 19  2  0     0  0
 20 21  1  0     0  0
  9  4  1  0     0  0
  2 21  2  0     0  0
  1 10  2  0     0  0
  4  5  2  0     0  0
 10 11  1  0     0  0
 20 25  1  0     0  0
 21 22  1  0     0  0
 22 23  1  0     0  0
 23 24  1  0     0  0
 24 25  1  0     0  0
 11 12  2  0     0  0
 23 26  1  0     0  0
  5  6  1  0     0  0
 26 27  1  0     0  0
 12 13  1  0     0  0
 27 28  2  0     0  0
 25  3  2  0     0  0
 28 29  1  0     0  0
 13 14  2  0     0  0
 29 30  2  0     0  0
 14  1  1  0     0  0
 30 31  1  0     0  0
  6  7  2  0     0  0
 31 32  2  0     0  0
 32 27  1  0     0  0
M  END
>  <prID>
627

>  <IDDB>
190958

>  <pIC50_HIV_Integrase>
5.657577319

>  <Q>
-0.871233362

>  <Activity_Integrase>
Inactive_Integrase

NA
NA
NA
NA
$$$$

  Accelrys05311914332D 1   1.00000     0.00000     0

 27 29  0     0  0            999 V2000
   -0.4792   -0.6417    0.0000 C   0  0  0  0  0  0           0  0  0
    0.2375   -0.2250    0.0000 C   0  0  0  0  0  0           0  0  0
    3.1042   -0.2167    0.0000 C   0  0  0  0  0  0           0  0  0
    3.8208   -0.6292    0.0000 C   0  0  0  0  0  0           0  0  0
    3.8207   -1.4556    0.0000 C   0  0  0  0  0  0           0  0  0
    4.5365   -1.8639    0.0000 C   0  0  0  0  0  0           0  0  0
    5.2474   -1.4509    0.0000 C   0  0  0  0  0  0           0  0  0
    5.2421   -0.6213    0.0000 C   0  0  0  0  0  0           0  0  0
    4.5299   -0.2126    0.0000 C   0  0  0  0  0  0           0  0  0
   -1.1922   -0.2238    0.0000 C   0  0  0  0  0  0           0  0  0
   -1.9084   -0.6397    0.0000 C   0  0  0  0  0  0           0  0  0
   -1.9078   -1.4681    0.0000 C   0  0  0  0  0  0           0  0  0
   -1.1852   -1.8787    0.0000 C   0  0  0  0  0  0           0  0  0
   -0.4761   -1.4645    0.0000 C   0  0  0  0  0  0           0  0  0
    5.9580   -0.1999    0.0000 O   0  0  0  0  0  0           0  0  0
    5.9679   -1.8602    0.0000 O   0  0  0  0  0  0           0  0  0
   -2.6273   -0.2236    0.0000 O   0  0  0  0  0  0           0  0  0
   -2.6254   -1.8824    0.0000 O   0  0  0  0  0  0           0  0  0
    1.6690    0.6083    0.0000 O   0  0  0  0  0  0           0  0  0
    1.6708   -0.2208    0.0000 C   0  0  0  0  0  0           0  0  0
    0.9542   -0.6375    0.0000 C   0  0  0  0  0  0           0  0  0
    0.9567   -1.4619    0.0000 C   0  0  0  0  0  0           0  0  0
    1.6742   -1.8759    0.0000 N   0  0  0  0  0  0           0  0  0
    2.3908   -1.4592    0.0000 C   0  0  0  0  0  0           0  0  0
    2.3900   -0.6286    0.0000 C   0  0  0  0  0  0           0  0  0
    4.5292   -2.6875    0.0000 O   0  0  0  0  0  0           0  0  0
   -1.1917   -2.7000    0.0000 O   0  0  0  0  0  0           0  0  0
 12 13  1  0     0  0
 25  3  2  0     0  0
 13 14  2  0     0  0
 14  1  1  0     0  0
  6  7  2  0     0  0
  8 15  1  0     0  0
  1  2  1  0     0  0
  7 16  1  0     0  0
  7  8  1  0     0  0
 11 17  1  0     0  0
  3  4  1  0     0  0
 12 18  1  0     0  0
  8  9  2  0     0  0
 20 19  2  0     0  0
 20 21  1  0     0  0
  9  4  1  0     0  0
  2 21  2  0     0  0
  1 10  2  0     0  0
  4  5  2  0     0  0
 10 11  1  0     0  0
 20 25  1  0     0  0
 21 22  1  0     0  0
 22 23  1  0     0  0
 23 24  1  0     0  0
 24 25  1  0     0  0
 11 12  2  0     0  0
  6 26  1  0     0  0
  5  6  1  0     0  0
 13 27  1  0     0  0
M  END
>  <prID>
628

>  <IDDB>
190961

>  <pIC50_HIV_Integrase>
6.301029996

>  <Q>
-3.937378659

>  <Activity_Integrase>
Active_Integrase

NA
NA
NA
NA
$$$$

  Accelrys05311914332D 1   1.00000     0.00000     0

 28 30  0     0  0            999 V2000
   -3.2875   -3.1333    0.0000 C   0  0  0  0  0  0           0  0  0
   -2.5708   -2.7167    0.0000 C   0  0  0  0  0  0           0  0  0
    0.2958   -2.7083    0.0000 C   0  0  0  0  0  0           0  0  0
    1.0125   -3.1208    0.0000 C   0  0  0  0  0  0           0  0  0
    1.0124   -3.9473    0.0000 C   0  0  0  0  0  0           0  0  0
    1.7282   -4.3555    0.0000 C   0  0  0  0  0  0           0  0  0
    2.4390   -3.9426    0.0000 C   0  0  0  0  0  0           0  0  0
    2.4338   -3.1130    0.0000 C   0  0  0  0  0  0           0  0  0
    1.7215   -2.7043    0.0000 C   0  0  0  0  0  0           0  0  0
   -4.0005   -2.7154    0.0000 C   0  0  0  0  0  0           0  0  0
   -4.7167   -3.1314    0.0000 C   0  0  0  0  0  0           0  0  0
   -4.7162   -3.9598    0.0000 C   0  0  0  0  0  0           0  0  0
   -3.9935   -4.3704    0.0000 C   0  0  0  0  0  0           0  0  0
   -3.2844   -3.9562    0.0000 C   0  0  0  0  0  0           0  0  0
    3.1496   -2.6915    0.0000 O   0  0  0  0  0  0           0  0  0
    3.1595   -4.3519    0.0000 O   0  0  0  0  0  0           0  0  0
   -5.4356   -2.7153    0.0000 O   0  0  0  0  0  0           0  0  0
   -5.4338   -4.3741    0.0000 O   0  0  0  0  0  0           0  0  0
   -1.1393   -1.8833    0.0000 O   0  0  0  0  0  0           0  0  0
   -1.1375   -2.7125    0.0000 C   0  0  0  0  0  0           0  0  0
   -1.8542   -3.1292    0.0000 C   0  0  0  0  0  0           0  0  0
   -1.8517   -3.9536    0.0000 C   0  0  0  0  0  0           0  0  0
   -1.1342   -4.3676    0.0000 N   0  0  3  0  0  0           0  0  0
   -0.4175   -3.9509    0.0000 C   0  0  0  0  0  0           0  0  0
   -0.4183   -3.1202    0.0000 C   0  0  0  0  0  0           0  0  0
    1.7208   -5.1792    0.0000 O   0  0  0  0  0  0           0  0  0
   -4.0000   -5.1917    0.0000 O   0  0  0  0  0  0           0  0  0
   -1.1328   -5.1926    0.0000 C   0  0  0  0  0  0           0  0  0
 25  3  2  0     0  0
 13 14  2  0     0  0
 14  1  1  0     0  0
  6  7  2  0     0  0
  8 15  1  0     0  0
  1  2  1  0     0  0
  7 16  1  0     0  0
  7  8  1  0     0  0
 11 17  1  0     0  0
  3  4  1  0     0  0
 12 18  1  0     0  0
  8  9  2  0     0  0
 20 19  2  0     0  0
 20 21  1  0     0  0
  9  4  1  0     0  0
  2 21  2  0     0  0
  1 10  2  0     0  0
  4  5  2  0     0  0
 10 11  1  0     0  0
 20 25  1  0     0  0
 21 22  1  0     0  0
 22 23  1  0     0  0
 23 24  1  0     0  0
 24 25  1  0     0  0
 11 12  2  0     0  0
  6 26  1  0     0  0
  5  6  1  0     0  0
 13 27  1  0     0  0
 12 13  1  0     0  0
 23 28  1  0     0  0
M  END
>  <prID>
629

>  <IDDB>
190962

>  <pIC50_HIV_Integrase>
6.22184875

>  <Q>
-2.876014678

>  <Activity_Integrase>
Active_Integrase

NA
NA
NA
NA
$$$$

  Accelrys05311914332D 1   1.00000     0.00000     0

 29 31  0     0  0            999 V2000
   -3.2875   -3.0458    0.0000 C   0  0  0  0  0  0           0  0  0
   -2.5708   -2.6292    0.0000 C   0  0  0  0  0  0           0  0  0
    0.2958   -2.6208    0.0000 C   0  0  0  0  0  0           0  0  0
    1.0125   -3.0333    0.0000 C   0  0  0  0  0  0           0  0  0
    1.0124   -3.8598    0.0000 C   0  0  0  0  0  0           0  0  0
    1.7282   -4.2680    0.0000 C   0  0  0  0  0  0           0  0  0
    2.4390   -3.8551    0.0000 C   0  0  0  0  0  0           0  0  0
    2.4338   -3.0255    0.0000 C   0  0  0  0  0  0           0  0  0
    1.7215   -2.6168    0.0000 C   0  0  0  0  0  0           0  0  0
   -4.0005   -2.6279    0.0000 C   0  0  0  0  0  0           0  0  0
   -4.7167   -3.0439    0.0000 C   0  0  0  0  0  0           0  0  0
   -4.7162   -3.8723    0.0000 C   0  0  0  0  0  0           0  0  0
   -3.9935   -4.2829    0.0000 C   0  0  0  0  0  0           0  0  0
   -3.2844   -3.8687    0.0000 C   0  0  0  0  0  0           0  0  0
    3.1496   -2.6040    0.0000 O   0  0  0  0  0  0           0  0  0
    3.1595   -4.2644    0.0000 O   0  0  0  0  0  0           0  0  0
   -5.4356   -2.6278    0.0000 O   0  0  0  0  0  0           0  0  0
   -5.4338   -4.2866    0.0000 O   0  0  0  0  0  0           0  0  0
   -1.1393   -1.7958    0.0000 O   0  0  0  0  0  0           0  0  0
   -1.1375   -2.6250    0.0000 C   0  0  0  0  0  0           0  0  0
   -1.8542   -3.0417    0.0000 C   0  0  0  0  0  0           0  0  0
   -1.8517   -3.8661    0.0000 C   0  0  0  0  0  0           0  0  0
   -1.1342   -4.2801    0.0000 N   0  0  3  0  0  0           0  0  0
   -0.4175   -3.8634    0.0000 C   0  0  0  0  0  0           0  0  0
   -0.4183   -3.0327    0.0000 C   0  0  0  0  0  0           0  0  0
    1.7208   -5.0917    0.0000 O   0  0  0  0  0  0           0  0  0
   -4.0000   -5.1042    0.0000 O   0  0  0  0  0  0           0  0  0
   -1.1328   -5.1051    0.0000 C   0  0  0  0  0  0           0  0  0
   -1.8466   -5.5187    0.0000 C   0  0  0  0  0  0           0  0  0
 13 14  2  0     0  0
 14  1  1  0     0  0
  6  7  2  0     0  0
  8 15  1  0     0  0
  1  2  1  0     0  0
  7 16  1  0     0  0
  7  8  1  0     0  0
 11 17  1  0     0  0
  3  4  1  0     0  0
 12 18  1  0     0  0
  8  9  2  0     0  0
 20 19  2  0     0  0
 20 21  1  0     0  0
  9  4  1  0     0  0
  2 21  2  0     0  0
  1 10  2  0     0  0
  4  5  2  0     0  0
 10 11  1  0     0  0
 20 25  1  0     0  0
 21 22  1  0     0  0
 22 23  1  0     0  0
 23 24  1  0     0  0
 24 25  1  0     0  0
 11 12  2  0     0  0
  6 26  1  0     0  0
  5  6  1  0     0  0
 13 27  1  0     0  0
 12 13  1  0     0  0
 23 28  1  0     0  0
 25  3  2  0     0  0
 28 29  1  0     0  0
M  END
>  <prID>
630

>  <IDDB>
190963

>  <pIC50_HIV_Integrase>
6.397940009

>  <Q>
-3.456810458

>  <Activity_Integrase>
Active_Integrase

NA
NA
NA
NA
$$$$

  Accelrys05311914332D 1   1.00000     0.00000     0

 27 29  0     0  0            999 V2000
   -3.2875    0.7917    0.0000 C   0  0  0  0  0  0           0  0  0
   -2.5708    1.2083    0.0000 C   0  0  0  0  0  0           0  0  0
    0.2958    1.2167    0.0000 C   0  0  0  0  0  0           0  0  0
    1.0125    0.8042    0.0000 C   0  0  0  0  0  0           0  0  0
    1.0124   -0.0223    0.0000 C   0  0  0  0  0  0           0  0  0
    1.7282   -0.4305    0.0000 C   0  0  0  0  0  0           0  0  0
    2.4390   -0.0176    0.0000 C   0  0  0  0  0  0           0  0  0
    2.4338    0.8120    0.0000 C   0  0  0  0  0  0           0  0  0
    1.7215    1.2207    0.0000 C   0  0  0  0  0  0           0  0  0
   -4.0005    1.2096    0.0000 C   0  0  0  0  0  0           0  0  0
   -4.7167    0.7936    0.0000 C   0  0  0  0  0  0           0  0  0
   -4.7162   -0.0348    0.0000 C   0  0  0  0  0  0           0  0  0
   -3.9935   -0.4454    0.0000 C   0  0  0  0  0  0           0  0  0
   -3.2844   -0.0312    0.0000 C   0  0  0  0  0  0           0  0  0
    3.1496    1.2335    0.0000 O   0  0  0  0  0  0           0  0  0
    3.1595   -0.4269    0.0000 O   0  0  0  0  0  0           0  0  0
   -5.4356    1.2097    0.0000 O   0  0  0  0  0  0           0  0  0
   -5.4338   -0.4491    0.0000 O   0  0  0  0  0  0           0  0  0
   -1.1393    2.0417    0.0000 O   0  0  0  0  0  0           0  0  0
   -1.1375    1.2125    0.0000 C   0  0  0  0  0  0           0  0  0
   -1.8542    0.7958    0.0000 C   0  0  0  0  0  0           0  0  0
   -1.8517   -0.0286    0.0000 C   0  0  0  0  0  0           0  0  0
   -1.1342   -0.4426    0.0000 C   0  0  0  0  0  0           0  0  0
   -0.4175   -0.0259    0.0000 C   0  0  0  0  0  0           0  0  0
   -0.4183    0.8048    0.0000 C   0  0  0  0  0  0           0  0  0
    1.7208   -1.2542    0.0000 O   0  0  0  0  0  0           0  0  0
   -4.0000   -1.2667    0.0000 O   0  0  0  0  0  0           0  0  0
 12 13  1  0     0  0
 25  3  2  0     0  0
 13 14  2  0     0  0
 14  1  1  0     0  0
  6  7  2  0     0  0
  8 15  1  0     0  0
  1  2  1  0     0  0
  7 16  1  0     0  0
  7  8  1  0     0  0
 11 17  1  0     0  0
  3  4  1  0     0  0
 12 18  1  0     0  0
  8  9  2  0     0  0
 20 19  2  0     0  0
 20 21  1  0     0  0
  9  4  1  0     0  0
  2 21  2  0     0  0
  1 10  2  0     0  0
  4  5  2  0     0  0
 10 11  1  0     0  0
 20 25  1  0     0  0
 21 22  1  0     0  0
 22 23  1  0     0  0
 23 24  1  0     0  0
 24 25  1  0     0  0
 11 12  2  0     0  0
  6 26  1  0     0  0
  5  6  1  0     0  0
 13 27  1  0     0  0
M  END
>  <prID>
631

>  <IDDB>
190964

>  <pIC50_HIV_Integrase>
5.638272164

>  <Q>
-3.859740481

>  <Activity_Integrase>
Inactive_Integrase

NA
NA
NA
NA
$$$$

  Accelrys05311914332D 1   1.00000     0.00000     0

 26 28  0     0  0            999 V2000
    0.6333   -0.9208    0.0000 C   0  0  0  0  0  0           0  0  0
    1.3500   -0.5042    0.0000 C   0  0  0  0  0  0           0  0  0
   -0.0797   -0.5029    0.0000 C   0  0  0  0  0  0           0  0  0
   -0.7959   -0.9189    0.0000 C   0  0  0  0  0  0           0  0  0
   -0.7953   -1.7473    0.0000 C   0  0  0  0  0  0           0  0  0
   -0.0727   -2.1579    0.0000 C   0  0  0  0  0  0           0  0  0
    0.6364   -1.7437    0.0000 C   0  0  0  0  0  0           0  0  0
   -1.5148   -0.5028    0.0000 O   0  0  0  0  0  0           0  0  0
   -1.5129   -2.1616    0.0000 O   0  0  0  0  0  0           0  0  0
    2.0667   -0.9167    0.0000 C   0  0  0  0  0  0           0  0  0
   -0.0792   -2.9792    0.0000 O   0  0  0  0  0  0           0  0  0
    4.1208   -0.5083    0.0000 C   0  0  0  0  0  0           0  0  0
    4.8375   -0.9208    0.0000 C   0  0  0  0  0  0           0  0  0
    4.8374   -1.7473    0.0000 C   0  0  0  0  0  0           0  0  0
    5.5532   -2.1555    0.0000 C   0  0  0  0  0  0           0  0  0
    6.2640   -1.7426    0.0000 C   0  0  0  0  0  0           0  0  0
    6.2588   -0.9130    0.0000 C   0  0  0  0  0  0           0  0  0
    5.5465   -0.5043    0.0000 C   0  0  0  0  0  0           0  0  0
    6.9746   -0.4915    0.0000 O   0  0  0  0  0  0           0  0  0
    6.9845   -2.1519    0.0000 O   0  0  0  0  0  0           0  0  0
    3.4067   -0.9202    0.0000 C   0  0  0  0  0  0           0  0  0
    5.5458   -2.9792    0.0000 O   0  0  0  0  0  0           0  0  0
    2.3254   -1.7042    0.0000 C   0  0  0  0  0  0           0  0  0
    3.1504   -1.7042    0.0000 C   0  0  0  0  0  0           0  0  0
    2.7379   -0.4346    0.0000 C   0  0  0  0  0  0           0  0  0
    2.7378    0.3904    0.0000 O   0  0  0  0  0  0           0  0  0
 12 13  1  0     0  0
  1  3  2  0     0  0
 13 14  2  0     0  0
  6  7  2  0     0  0
 14 15  1  0     0  0
  7  1  1  0     0  0
 15 16  2  0     0  0
  1  2  1  0     0  0
 16 17  1  0     0  0
  4  8  1  0     0  0
 17 18  2  0     0  0
 18 13  1  0     0  0
  3  4  1  0     0  0
 17 19  1  0     0  0
  5  9  1  0     0  0
 16 20  1  0     0  0
  2 10  2  0     0  0
  4  5  2  0     0  0
 15 22  1  0     0  0
 23 24  1  0     0  0
  6 11  1  0     0  0
 21 12  2  0     0  0
 24 21  1  0     0  0
 21 25  1  0     0  0
 25 10  1  0     0  0
 10 23  1  0     0  0
  5  6  1  0     0  0
 25 26  2  0     0  0
M  END
>  <prID>
632

>  <IDDB>
190965

>  <pIC50_HIV_Integrase>
6.045757491

>  <Q>
-3.602134705

>  <Activity_Integrase>
Active_Integrase

NA
NA
NA
NA
$$$$

  Accelrys05311914332D 1   1.00000     0.00000     0

 20 22  0     0  0            999 V2000
    1.9874   -1.4129    0.0000 C   0  0  0  0  0  0           0  0  0
    1.9833   -2.2379    0.0000 C   0  0  0  0  0  0           0  0  0
    2.7734   -1.1620    0.0000 C   0  0  0  0  0  0           0  0  0
    0.5500   -1.4167    0.0000 C   0  0  0  0  0  0           0  0  0
    1.2667   -1.0000    0.0000 C   0  0  0  0  0  0           0  0  0
   -0.1630   -0.9988    0.0000 C   0  0  0  0  0  0           0  0  0
   -0.8792   -1.4147    0.0000 C   0  0  0  0  0  0           0  0  0
   -0.8787   -2.2431    0.0000 C   0  0  0  0  0  0           0  0  0
   -0.1560   -2.6537    0.0000 C   0  0  0  0  0  0           0  0  0
    0.5531   -2.2395    0.0000 C   0  0  0  0  0  0           0  0  0
   -1.5981   -0.9986    0.0000 O   0  0  0  0  0  0           0  0  0
   -1.5963   -2.6574    0.0000 O   0  0  0  0  0  0           0  0  0
   -0.1625   -3.4750    0.0000 O   0  0  0  0  0  0           0  0  0
    1.2625   -2.6458    0.0000 O   0  0  0  0  0  0           0  0  0
    3.2550   -1.8318    0.0000 C   0  0  0  0  0  0           0  0  0
    2.7663   -2.4931    0.0000 C   0  0  0  0  0  0           0  0  0
    3.0947   -3.2448    0.0000 C   0  0  0  0  0  0           0  0  0
    3.9116   -3.3365    0.0000 C   0  0  0  0  0  0           0  0  0
    4.3990   -2.6704    0.0000 C   0  0  0  0  0  0           0  0  0
    4.0679   -1.9212    0.0000 C   0  0  0  0  0  0           0  0  0
  9 10  2  0     0  0
 10  4  1  0     0  0
  4  5  1  0     0  0
  7 11  1  0     0  0
  5  1  2  0     0  0
  8 12  1  0     0  0
  2 16  1  0     0  0
  9 13  1  0     0  0
  4  6  2  0     0  0
  2 14  2  0     0  0
 15  3  1  0     0  0
  6  7  1  0     0  0
 15 16  2  0     0  0
  3  1  1  0     0  0
 16 17  1  0     0  0
  7  8  2  0     0  0
 17 18  2  0     0  0
  1  2  1  0     0  0
 18 19  1  0     0  0
  8  9  1  0     0  0
 19 20  2  0     0  0
 20 15  1  0     0  0
M  END
>  <prID>
633

>  <IDDB>
190966

>  <pIC50_HIV_Integrase>
6.15490196

>  <Q>
-1.203896083

>  <Activity_Integrase>
Active_Integrase

NA
NA
NA
NA
$$$$

  Accelrys05311914332D 1   1.00000     0.00000     0

 21 23  0     0  0            999 V2000
   -1.8501   -2.7129    0.0000 C   0  0  0  0  0  0           0  0  0
   -1.8542   -3.5379    0.0000 C   0  0  0  0  0  0           0  0  0
   -1.0641   -2.4620    0.0000 C   0  0  0  0  0  0           0  0  0
   -3.2875   -2.7167    0.0000 C   0  0  0  0  0  0           0  0  0
   -2.5708   -2.3000    0.0000 C   0  0  0  0  0  0           0  0  0
   -4.0005   -2.2988    0.0000 C   0  0  0  0  0  0           0  0  0
   -4.7167   -2.7147    0.0000 C   0  0  0  0  0  0           0  0  0
   -4.7162   -3.5431    0.0000 C   0  0  0  0  0  0           0  0  0
   -3.9935   -3.9537    0.0000 C   0  0  0  0  0  0           0  0  0
   -3.2844   -3.5395    0.0000 C   0  0  0  0  0  0           0  0  0
   -5.4356   -2.2986    0.0000 O   0  0  0  0  0  0           0  0  0
   -5.4338   -3.9574    0.0000 O   0  0  0  0  0  0           0  0  0
   -4.0000   -4.7750    0.0000 O   0  0  0  0  0  0           0  0  0
   -2.5750   -3.9458    0.0000 O   0  0  0  0  0  0           0  0  0
   -0.5825   -3.1318    0.0000 C   0  0  0  0  0  0           0  0  0
   -1.0712   -3.7931    0.0000 C   0  0  0  0  0  0           0  0  0
   -0.7428   -4.5448    0.0000 C   0  0  0  0  0  0           0  0  0
    0.0741   -4.6365    0.0000 C   0  0  0  0  0  0           0  0  0
    0.5615   -3.9704    0.0000 C   0  0  0  0  0  0           0  0  0
    0.2304   -3.2212    0.0000 C   0  0  0  0  0  0           0  0  0
   -0.8053   -1.6786    0.0000 O   0  0  0  0  0  0           0  0  0
  9 10  2  0     0  0
 10  4  1  0     0  0
  4  5  1  0     0  0
  7 11  1  0     0  0
  5  1  2  0     0  0
  8 12  1  0     0  0
  2 16  1  0     0  0
  9 13  1  0     0  0
  4  6  2  0     0  0
  2 14  2  0     0  0
 15  3  1  0     0  0
  6  7  1  0     0  0
 15 16  2  0     0  0
  3  1  1  0     0  0
 16 17  1  0     0  0
  7  8  2  0     0  0
 17 18  2  0     0  0
  1  2  1  0     0  0
 18 19  1  0     0  0
  8  9  1  0     0  0
 19 20  2  0     0  0
 20 15  1  0     0  0
  3 21  2  0     0  0
M  END
>  <prID>
634

>  <IDDB>
190967

>  <pIC50_HIV_Integrase>
6.301029996

>  <Q>
-1.004621801

>  <Activity_Integrase>
Active_Integrase

NA
NA
NA
NA
$$$$

  Accelrys05311914332D 1   1.00000     0.00000     0

 19 20  0     0  0            999 V2000
    2.1499   -1.5587    0.0000 C   0  0  0  0  0  0           0  0  0
    0.7125   -1.5625    0.0000 C   0  0  0  0  0  0           0  0  0
    1.4292   -1.1458    0.0000 C   0  0  0  0  0  0           0  0  0
   -0.0005   -1.1446    0.0000 C   0  0  0  0  0  0           0  0  0
   -0.7167   -1.5606    0.0000 C   0  0  0  0  0  0           0  0  0
   -0.7162   -2.3889    0.0000 C   0  0  0  0  0  0           0  0  0
    0.0065   -2.7995    0.0000 C   0  0  0  0  0  0           0  0  0
    0.7156   -2.3854    0.0000 C   0  0  0  0  0  0           0  0  0
   -1.4356   -1.1444    0.0000 O   0  0  0  0  0  0           0  0  0
   -1.4338   -2.8032    0.0000 O   0  0  0  0  0  0           0  0  0
    0.0000   -3.6208    0.0000 O   0  0  0  0  0  0           0  0  0
    2.1462   -2.3945    0.0000 C   0  0  0  0  0  0           0  0  0
    2.8629   -2.8073    0.0000 N   0  0  0  0  0  0           0  0  0
    3.5833   -2.3931    0.0000 C   0  0  0  0  0  0           0  0  0
    3.5825   -1.5615    0.0000 N   0  0  0  0  0  0           0  0  0
    2.8612   -1.1441    0.0000 C   0  0  0  0  0  0           0  0  0
    2.8599   -0.3191    0.0000 O   0  0  0  0  0  0           0  0  0
    1.4311   -2.8058    0.0000 O   0  0  0  0  0  0           0  0  0
    4.2976   -2.8059    0.0000 O   0  0  0  0  0  0           0  0  0
  4  5  1  0     0  0
  6 10  1  0     0  0
  3  1  2  0     0  0
  7 11  1  0     0  0
  1 12  1  0     0  0
  5  6  2  0     0  0
  6  7  1  0     0  0
  2  4  2  0     0  0
  7  8  2  0     0  0
  1 16  1  0     0  0
 12 13  1  0     0  0
 13 14  1  0     0  0
 14 15  1  0     0  0
 15 16  1  0     0  0
  8  2  1  0     0  0
 16 17  2  0     0  0
  2  3  1  0     0  0
 12 18  2  0     0  0
  5  9  1  0     0  0
 14 19  2  0     0  0
M  END
>  <prID>
635

>  <IDDB>
190968

>  <pIC50_HIV_Integrase>
5.397940009

>  <Q>
-3.388358705

>  <Activity_Integrase>
Inactive_Integrase

NA
NA
NA
NA
$$$$

  Accelrys05311914332D 1   1.00000     0.00000     0

 30 32  0     0  0            999 V2000
    0.9917   -3.7250    0.0000 C   0  0  0  0  0  0           0  0  0
    1.7083   -3.3083    0.0000 C   0  0  0  0  0  0           0  0  0
    4.5750   -3.3000    0.0000 C   0  0  0  0  0  0           0  0  0
    5.2917   -3.7125    0.0000 C   0  0  0  0  0  0           0  0  0
    5.2915   -4.5390    0.0000 C   0  0  0  0  0  0           0  0  0
    6.0074   -4.9472    0.0000 C   0  0  0  0  0  0           0  0  0
    6.7182   -4.5343    0.0000 C   0  0  0  0  0  0           0  0  0
    6.7129   -3.7047    0.0000 C   0  0  0  0  0  0           0  0  0
    6.0007   -3.2960    0.0000 C   0  0  0  0  0  0           0  0  0
    0.2786   -3.3071    0.0000 C   0  0  0  0  0  0           0  0  0
   -0.4375   -3.7231    0.0000 C   0  0  0  0  0  0           0  0  0
   -0.4370   -4.5514    0.0000 C   0  0  0  0  0  0           0  0  0
    0.2857   -4.9620    0.0000 C   0  0  0  0  0  0           0  0  0
    0.9947   -4.5479    0.0000 C   0  0  0  0  0  0           0  0  0
    7.4387   -4.9435    0.0000 O   0  0  0  0  0  0           0  0  0
   -1.1546   -4.9657    0.0000 O   0  0  0  0  0  0           0  0  0
    3.1399   -2.4750    0.0000 O   0  0  0  0  0  0           0  0  0
    3.1417   -3.3042    0.0000 C   0  0  0  0  0  0           0  0  0
    2.4250   -3.7208    0.0000 C   0  0  0  0  0  0           0  0  0
    2.4275   -4.5452    0.0000 C   0  0  0  0  0  0           0  0  0
    3.1450   -4.9592    0.0000 C   0  0  3  0  0  0           0  0  0
    3.8617   -4.5426    0.0000 C   0  0  0  0  0  0           0  0  0
    3.8608   -3.7119    0.0000 C   0  0  0  0  0  0           0  0  0
    7.4250   -3.2875    0.0000 O   0  0  0  0  0  0           0  0  0
   -1.1583   -3.3083    0.0000 O   0  0  0  0  0  0           0  0  0
    3.1464   -5.7842    0.0000 C   0  0  0  0  0  0           0  0  0
    2.4326   -6.1979    0.0000 O   0  0  0  0  0  0           0  0  0
    3.8615   -6.1956    0.0000 O   0  0  0  0  0  0           0  0  0
    4.5667   -5.7750    0.0000 C   0  0  0  0  0  0           0  0  0
    5.2833   -6.1792    0.0000 C   0  0  0  0  0  0           0  0  0
 14  1  1  0     0  0
  6  7  2  0     0  0
  7 15  1  0     0  0
  1  2  1  0     0  0
 12 16  1  0     0  0
  7  8  1  0     0  0
 18 17  2  0     0  0
 18 19  1  0     0  0
  3  4  1  0     0  0
  8  9  2  0     0  0
  9  4  1  0     0  0
  2 19  2  0     0  0
  1 10  2  0     0  0
  4  5  2  0     0  0
 18 23  1  0     0  0
 19 20  1  0     0  0
 20 21  1  0     0  0
 21 22  1  0     0  0
 22 23  1  0     0  0
 10 11  1  0     0  0
  8 24  1  0     0  0
 11 25  1  0     0  0
 11 12  2  0     0  0
 21 26  1  0     0  0
  5  6  1  0     0  0
 26 27  2  0     0  0
 12 13  1  0     0  0
 26 28  1  0     0  0
 23  3  2  0     0  0
 28 29  1  0     0  0
 13 14  2  0     0  0
 29 30  1  0     0  0
M  END
>  <prID>
636

>  <IDDB>
190969

>  <pIC50_HIV_Integrase>
6.397940009

>  <Q>
-2.933537826

>  <Activity_Integrase>
Active_Integrase

NA
NA
NA
NA
$$$$

  Accelrys05311914332D 1   1.00000     0.00000     0

 28 30  0     0  0            999 V2000
   -3.2875   -0.2125    0.0000 C   0  0  0  0  0  0           0  0  0
   -2.5708    0.2042    0.0000 C   0  0  0  0  0  0           0  0  0
    0.2958    0.2125    0.0000 C   0  0  0  0  0  0           0  0  0
    1.0125   -0.2000    0.0000 C   0  0  0  0  0  0           0  0  0
    1.0124   -1.0265    0.0000 C   0  0  0  0  0  0           0  0  0
    1.7282   -1.4347    0.0000 C   0  0  0  0  0  0           0  0  0
    2.4390   -1.0218    0.0000 C   0  0  0  0  0  0           0  0  0
    2.4338   -0.1922    0.0000 C   0  0  0  0  0  0           0  0  0
    1.7215    0.2165    0.0000 C   0  0  0  0  0  0           0  0  0
   -4.0005    0.2054    0.0000 C   0  0  0  0  0  0           0  0  0
   -4.7167   -0.2106    0.0000 C   0  0  0  0  0  0           0  0  0
   -4.7162   -1.0389    0.0000 C   0  0  0  0  0  0           0  0  0
   -3.9935   -1.4495    0.0000 C   0  0  0  0  0  0           0  0  0
   -3.2844   -1.0354    0.0000 C   0  0  0  0  0  0           0  0  0
    3.1595   -1.4310    0.0000 O   0  0  0  0  0  0           0  0  0
   -5.4338   -1.4532    0.0000 O   0  0  0  0  0  0           0  0  0
   -1.1393    1.0375    0.0000 O   0  0  0  0  0  0           0  0  0
   -1.1375    0.2083    0.0000 C   0  0  0  0  0  0           0  0  0
   -1.8542   -0.2083    0.0000 C   0  0  0  0  0  0           0  0  0
   -1.8517   -1.0327    0.0000 C   0  0  0  0  0  0           0  0  0
   -1.1342   -1.4467    0.0000 C   0  0  3  0  0  0           0  0  0
   -0.4175   -1.0301    0.0000 C   0  0  0  0  0  0           0  0  0
   -0.4183   -0.1994    0.0000 C   0  0  0  0  0  0           0  0  0
    3.1458    0.2250    0.0000 O   0  0  0  0  0  0           0  0  0
   -5.4375    0.2042    0.0000 O   0  0  0  0  0  0           0  0  0
   -1.1328   -2.2717    0.0000 C   0  0  0  0  0  0           0  0  0
   -1.8466   -2.6854    0.0000 O   0  0  0  0  0  0           0  0  0
   -0.4177   -2.6831    0.0000 O   0  0  0  0  0  0           0  0  0
 23  3  2  0     0  0
 13 14  2  0     0  0
 14  1  1  0     0  0
  6  7  2  0     0  0
  7 15  1  0     0  0
  1  2  1  0     0  0
 12 16  1  0     0  0
  7  8  1  0     0  0
 18 17  2  0     0  0
 18 19  1  0     0  0
  3  4  1  0     0  0
  8  9  2  0     0  0
  9  4  1  0     0  0
  2 19  2  0     0  0
  1 10  2  0     0  0
  4  5  2  0     0  0
 18 23  1  0     0  0
 19 20  1  0     0  0
 20 21  1  0     0  0
 21 22  1  0     0  0
 22 23  1  0     0  0
 10 11  1  0     0  0
  8 24  1  0     0  0
 11 25  1  0     0  0
 11 12  2  0     0  0
 21 26  1  0     0  0
  5  6  1  0     0  0
 26 27  2  0     0  0
 12 13  1  0     0  0
 26 28  1  0     0  0
M  END
>  <prID>
637

>  <IDDB>
190970

>  <pIC50_HIV_Integrase>
6

>  <Q>
-3.065083513

>  <Activity_Integrase>
Inactive_Integrase

NA
NA
NA
NA
$$$$

  Accelrys05311914332D 1   1.00000     0.00000     0

 32 34  0     0  0            999 V2000
   -3.2875   -0.2125    0.0000 C   0  0  0  0  0  0           0  0  0
   -2.5708    0.2042    0.0000 C   0  0  0  0  0  0           0  0  0
    0.2958    0.2125    0.0000 C   0  0  0  0  0  0           0  0  0
    1.0125   -0.2000    0.0000 C   0  0  0  0  0  0           0  0  0
    1.0124   -1.0265    0.0000 C   0  0  0  0  0  0           0  0  0
    1.7282   -1.4347    0.0000 C   0  0  0  0  0  0           0  0  0
    2.4390   -1.0218    0.0000 C   0  0  0  0  0  0           0  0  0
    2.4338   -0.1922    0.0000 C   0  0  0  0  0  0           0  0  0
    1.7215    0.2165    0.0000 C   0  0  0  0  0  0           0  0  0
   -4.0005    0.2054    0.0000 C   0  0  0  0  0  0           0  0  0
   -4.7167   -0.2106    0.0000 C   0  0  0  0  0  0           0  0  0
   -4.7162   -1.0389    0.0000 C   0  0  0  0  0  0           0  0  0
   -3.9935   -1.4495    0.0000 C   0  0  0  0  0  0           0  0  0
   -3.2844   -1.0354    0.0000 C   0  0  0  0  0  0           0  0  0
    3.1595   -1.4310    0.0000 O   0  0  0  0  0  0           0  0  0
   -5.4338   -1.4532    0.0000 O   0  0  0  0  0  0           0  0  0
   -1.1393    1.0375    0.0000 O   0  0  0  0  0  0           0  0  0
   -1.1375    0.2083    0.0000 C   0  0  0  0  0  0           0  0  0
   -1.8542   -0.2083    0.0000 C   0  0  0  0  0  0           0  0  0
   -1.8517   -1.0327    0.0000 C   0  0  0  0  0  0           0  0  0
   -1.1342   -1.4467    0.0000 C   0  0  3  0  0  0           0  0  0
   -0.4175   -1.0301    0.0000 C   0  0  0  0  0  0           0  0  0
   -0.4183   -0.1994    0.0000 C   0  0  0  0  0  0           0  0  0
    3.1458    0.2250    0.0000 O   0  0  0  0  0  0           0  0  0
   -5.4375    0.2042    0.0000 O   0  0  0  0  0  0           0  0  0
   -1.1328   -2.2717    0.0000 C   0  0  0  0  0  0           0  0  0
   -1.8466   -2.6854    0.0000 O   0  0  0  0  0  0           0  0  0
   -0.4177   -2.6831    0.0000 O   0  0  0  0  0  0           0  0  0
   -4.0000   -2.2708    0.0000 O   0  0  0  0  0  0           0  0  0
    1.7208   -2.2583    0.0000 O   0  0  0  0  0  0           0  0  0
   -0.4250   -3.5042    0.0000 C   0  0  0  0  0  0           0  0  0
    0.2875   -3.9167    0.0000 C   0  0  0  0  0  0           0  0  0
  7 15  1  0     0  0
  1  2  1  0     0  0
 12 16  1  0     0  0
  7  8  1  0     0  0
 18 17  2  0     0  0
 18 19  1  0     0  0
  3  4  1  0     0  0
  8  9  2  0     0  0
  9  4  1  0     0  0
  2 19  2  0     0  0
  1 10  2  0     0  0
  4  5  2  0     0  0
 18 23  1  0     0  0
 19 20  1  0     0  0
 20 21  1  0     0  0
 21 22  1  0     0  0
 22 23  1  0     0  0
 10 11  1  0     0  0
  8 24  1  0     0  0
 11 25  1  0     0  0
 11 12  2  0     0  0
 21 26  1  0     0  0
  5  6  1  0     0  0
 26 27  2  0     0  0
 12 13  1  0     0  0
 26 28  1  0     0  0
 23  3  2  0     0  0
 13 29  1  0     0  0
 13 14  2  0     0  0
  6 30  1  0     0  0
 14  1  1  0     0  0
 28 31  1  0     0  0
  6  7  2  0     0  0
 31 32  1  0     0  0
M  END
>  <prID>
638

>  <IDDB>
190971

>  <pIC50_HIV_Integrase>
6.522878745

>  <Q>
-4.56820345

>  <Activity_Integrase>
Active_Integrase

NA
NA
NA
NA
$$$$

  Accelrys05311914332D 1   1.00000     0.00000     0

 30 32  0     0  0            999 V2000
   -3.2875    0.4125    0.0000 C   0  0  0  0  0  0           0  0  0
   -2.5708    0.8292    0.0000 C   0  0  0  0  0  0           0  0  0
    0.2958    0.8375    0.0000 C   0  0  0  0  0  0           0  0  0
    1.0125    0.4250    0.0000 C   0  0  0  0  0  0           0  0  0
    1.0124   -0.4015    0.0000 C   0  0  0  0  0  0           0  0  0
    1.7282   -0.8097    0.0000 C   0  0  0  0  0  0           0  0  0
    2.4390   -0.3968    0.0000 C   0  0  0  0  0  0           0  0  0
    2.4338    0.4328    0.0000 C   0  0  0  0  0  0           0  0  0
    1.7215    0.8415    0.0000 C   0  0  0  0  0  0           0  0  0
   -4.0005    0.8304    0.0000 C   0  0  0  0  0  0           0  0  0
   -4.7167    0.4144    0.0000 C   0  0  0  0  0  0           0  0  0
   -4.7162   -0.4139    0.0000 C   0  0  0  0  0  0           0  0  0
   -3.9935   -0.8245    0.0000 C   0  0  0  0  0  0           0  0  0
   -3.2844   -0.4104    0.0000 C   0  0  0  0  0  0           0  0  0
    3.1595   -0.8060    0.0000 O   0  0  0  0  0  0           0  0  0
   -5.4338   -0.8282    0.0000 O   0  0  0  0  0  0           0  0  0
   -1.1393    1.6625    0.0000 O   0  0  0  0  0  0           0  0  0
   -1.1375    0.8333    0.0000 C   0  0  0  0  0  0           0  0  0
   -1.8542    0.4167    0.0000 C   0  0  0  0  0  0           0  0  0
   -1.8517   -0.4077    0.0000 C   0  0  0  0  0  0           0  0  0
   -1.1342   -0.8217    0.0000 C   0  0  3  0  0  0           0  0  0
   -0.4175   -0.4051    0.0000 C   0  0  0  0  0  0           0  0  0
   -0.4183    0.4256    0.0000 C   0  0  0  0  0  0           0  0  0
    3.1458    0.8500    0.0000 O   0  0  0  0  0  0           0  0  0
   -5.4375    0.8292    0.0000 O   0  0  0  0  0  0           0  0  0
   -1.1328   -1.6467    0.0000 C   0  0  0  0  0  0           0  0  0
   -1.8466   -2.0604    0.0000 O   0  0  0  0  0  0           0  0  0
   -0.4177   -2.0581    0.0000 O   0  0  0  0  0  0           0  0  0
   -4.0000   -1.6458    0.0000 O   0  0  0  0  0  0           0  0  0
    1.7208   -1.6333    0.0000 O   0  0  0  0  0  0           0  0  0
 14  1  1  0     0  0
  6  7  2  0     0  0
  7 15  1  0     0  0
  1  2  1  0     0  0
 12 16  1  0     0  0
  7  8  1  0     0  0
 18 17  2  0     0  0
 18 19  1  0     0  0
  3  4  1  0     0  0
  8  9  2  0     0  0
  9  4  1  0     0  0
  2 19  2  0     0  0
  1 10  2  0     0  0
  4  5  2  0     0  0
 18 23  1  0     0  0
 19 20  1  0     0  0
 20 21  1  0     0  0
 21 22  1  0     0  0
 22 23  1  0     0  0
 10 11  1  0     0  0
  8 24  1  0     0  0
 11 25  1  0     0  0
 11 12  2  0     0  0
 21 26  1  0     0  0
  5  6  1  0     0  0
 26 27  2  0     0  0
 12 13  1  0     0  0
 26 28  1  0     0  0
 23  3  2  0     0  0
 13 29  1  0     0  0
 13 14  2  0     0  0
  6 30  1  0     0  0
M  END
>  <prID>
639

>  <IDDB>
190972

>  <pIC50_HIV_Integrase>
6.522878745

>  <Q>
-4.699749138

>  <Activity_Integrase>
Active_Integrase

NA
NA
NA
NA
$$$$

  Accelrys05311914332D 1   1.00000     0.00000     0

 31 33  0     0  0            999 V2000
   -3.2875   -0.2875    0.0000 C   0  0  0  0  0  0           0  0  0
   -2.5708    0.1292    0.0000 C   0  0  0  0  0  0           0  0  0
    0.2958    0.1375    0.0000 C   0  0  0  0  0  0           0  0  0
    1.0125   -0.2750    0.0000 C   0  0  0  0  0  0           0  0  0
    1.0124   -1.1015    0.0000 C   0  0  0  0  0  0           0  0  0
    1.7282   -1.5097    0.0000 C   0  0  0  0  0  0           0  0  0
    2.4390   -1.0968    0.0000 C   0  0  0  0  0  0           0  0  0
    2.4338   -0.2672    0.0000 C   0  0  0  0  0  0           0  0  0
    1.7215    0.1415    0.0000 C   0  0  0  0  0  0           0  0  0
   -4.0005    0.1304    0.0000 C   0  0  0  0  0  0           0  0  0
   -4.7167   -0.2856    0.0000 C   0  0  0  0  0  0           0  0  0
   -4.7162   -1.1139    0.0000 C   0  0  0  0  0  0           0  0  0
   -3.9935   -1.5245    0.0000 C   0  0  0  0  0  0           0  0  0
   -3.2844   -1.1104    0.0000 C   0  0  0  0  0  0           0  0  0
    3.1595   -1.5060    0.0000 O   0  0  0  0  0  0           0  0  0
   -5.4338   -1.5282    0.0000 O   0  0  0  0  0  0           0  0  0
   -1.1393    0.9625    0.0000 O   0  0  0  0  0  0           0  0  0
   -1.1375    0.1333    0.0000 C   0  0  0  0  0  0           0  0  0
   -1.8542   -0.2833    0.0000 C   0  0  0  0  0  0           0  0  0
   -1.8517   -1.1077    0.0000 C   0  0  0  0  0  0           0  0  0
   -1.1342   -1.5217    0.0000 C   0  0  3  0  0  0           0  0  0
   -0.4175   -1.1051    0.0000 C   0  0  0  0  0  0           0  0  0
   -0.4183   -0.2744    0.0000 C   0  0  0  0  0  0           0  0  0
    3.1458    0.1500    0.0000 O   0  0  0  0  0  0           0  0  0
   -5.4375    0.1292    0.0000 O   0  0  0  0  0  0           0  0  0
   -1.1328   -2.3467    0.0000 C   0  0  0  0  0  0           0  0  0
   -0.4208   -2.7583    0.0000 C   0  0  0  0  0  0           0  0  0
   -0.4213   -3.5833    0.0000 O   0  0  0  0  0  0           0  0  0
    0.2939   -2.3462    0.0000 O   0  0  0  0  0  0           0  0  0
    0.2875   -3.9917    0.0000 C   0  0  0  0  0  0           0  0  0
    1.0000   -3.5750    0.0000 C   0  0  0  0  0  0           0  0  0
  6  7  2  0     0  0
  7 15  1  0     0  0
  1  2  1  0     0  0
 12 16  1  0     0  0
  7  8  1  0     0  0
 18 17  2  0     0  0
 18 19  1  0     0  0
  3  4  1  0     0  0
  8  9  2  0     0  0
  9  4  1  0     0  0
  2 19  2  0     0  0
  1 10  2  0     0  0
  4  5  2  0     0  0
 18 23  1  0     0  0
 19 20  1  0     0  0
 20 21  1  0     0  0
 21 22  1  0     0  0
 22 23  1  0     0  0
 10 11  1  0     0  0
  8 24  1  0     0  0
 11 25  1  0     0  0
 11 12  2  0     0  0
 21 26  1  0     0  0
  5  6  1  0     0  0
 26 27  1  0     0  0
 12 13  1  0     0  0
 27 28  1  0     0  0
 23  3  2  0     0  0
 27 29  2  0     0  0
 13 14  2  0     0  0
 28 30  1  0     0  0
 14  1  1  0     0  0
 30 31  1  0     0  0
M  END
>  <prID>
640

>  <IDDB>
190973

>  <pIC50_HIV_Integrase>
5.366531544

>  <Q>
-3.254564295

>  <Activity_Integrase>
Inactive_Integrase

NA
NA
NA
NA
$$$$

  Accelrys05311914332D 1   1.00000     0.00000     0

 29 31  0     0  0            999 V2000
   -3.2875   -2.3750    0.0000 C   0  0  0  0  0  0           0  0  0
   -2.5708   -1.9583    0.0000 C   0  0  0  0  0  0           0  0  0
    0.2958   -1.9500    0.0000 C   0  0  0  0  0  0           0  0  0
    1.0125   -2.3625    0.0000 C   0  0  0  0  0  0           0  0  0
    1.0124   -3.1890    0.0000 C   0  0  0  0  0  0           0  0  0
    1.7282   -3.5972    0.0000 C   0  0  0  0  0  0           0  0  0
    2.4390   -3.1843    0.0000 C   0  0  0  0  0  0           0  0  0
    2.4338   -2.3547    0.0000 C   0  0  0  0  0  0           0  0  0
    1.7215   -1.9460    0.0000 C   0  0  0  0  0  0           0  0  0
   -4.0005   -1.9571    0.0000 C   0  0  0  0  0  0           0  0  0
   -4.7167   -2.3731    0.0000 C   0  0  0  0  0  0           0  0  0
   -4.7162   -3.2014    0.0000 C   0  0  0  0  0  0           0  0  0
   -3.9935   -3.6120    0.0000 C   0  0  0  0  0  0           0  0  0
   -3.2844   -3.1979    0.0000 C   0  0  0  0  0  0           0  0  0
    3.1595   -3.5935    0.0000 O   0  0  0  0  0  0           0  0  0
   -5.4338   -3.6157    0.0000 O   0  0  0  0  0  0           0  0  0
   -1.1393   -1.1250    0.0000 O   0  0  0  0  0  0           0  0  0
   -1.1375   -1.9542    0.0000 C   0  0  0  0  0  0           0  0  0
   -1.8542   -2.3708    0.0000 C   0  0  0  0  0  0           0  0  0
   -1.8517   -3.1952    0.0000 C   0  0  0  0  0  0           0  0  0
   -1.1342   -3.6092    0.0000 C   0  0  3  0  0  0           0  0  0
   -0.4175   -3.1926    0.0000 C   0  0  0  0  0  0           0  0  0
   -0.4183   -2.3619    0.0000 C   0  0  0  0  0  0           0  0  0
    3.1458   -1.9375    0.0000 O   0  0  0  0  0  0           0  0  0
   -5.4375   -1.9583    0.0000 O   0  0  0  0  0  0           0  0  0
   -1.1328   -4.4342    0.0000 C   0  0  0  0  0  0           0  0  0
   -0.4208   -4.8458    0.0000 C   0  0  0  0  0  0           0  0  0
   -0.4213   -5.6708    0.0000 O   0  0  0  0  0  0           0  0  0
    0.2939   -4.4337    0.0000 O   0  0  0  0  0  0           0  0  0
 13 14  2  0     0  0
 14  1  1  0     0  0
  6  7  2  0     0  0
  7 15  1  0     0  0
  1  2  1  0     0  0
 12 16  1  0     0  0
  7  8  1  0     0  0
 18 17  2  0     0  0
 18 19  1  0     0  0
  3  4  1  0     0  0
  8  9  2  0     0  0
  9  4  1  0     0  0
  2 19  2  0     0  0
  1 10  2  0     0  0
  4  5  2  0     0  0
 18 23  1  0     0  0
 19 20  1  0     0  0
 20 21  1  0     0  0
 21 22  1  0     0  0
 22 23  1  0     0  0
 10 11  1  0     0  0
  8 24  1  0     0  0
 11 25  1  0     0  0
 11 12  2  0     0  0
 21 26  1  0     0  0
  5  6  1  0     0  0
 26 27  1  0     0  0
 12 13  1  0     0  0
 27 28  1  0     0  0
 23  3  2  0     0  0
 27 29  2  0     0  0
M  END
>  <prID>
641

>  <IDDB>
190974

>  <pIC50_HIV_Integrase>
5.920818754

>  <Q>
-3.380602957

>  <Activity_Integrase>
Inactive_Integrase

NA
NA
NA
NA
$$$$

  Accelrys05311914332D 1   1.00000     0.00000     0

 33 35  0     0  0            999 V2000
   -3.2875   -2.3750    0.0000 C   0  0  0  0  0  0           0  0  0
   -2.5708   -1.9583    0.0000 C   0  0  0  0  0  0           0  0  0
    0.2958   -1.9500    0.0000 C   0  0  0  0  0  0           0  0  0
    1.0125   -2.3625    0.0000 C   0  0  0  0  0  0           0  0  0
    1.0124   -3.1890    0.0000 C   0  0  0  0  0  0           0  0  0
    1.7282   -3.5972    0.0000 C   0  0  0  0  0  0           0  0  0
    2.4390   -3.1843    0.0000 C   0  0  0  0  0  0           0  0  0
    2.4338   -2.3547    0.0000 C   0  0  0  0  0  0           0  0  0
    1.7215   -1.9460    0.0000 C   0  0  0  0  0  0           0  0  0
   -4.0005   -1.9571    0.0000 C   0  0  0  0  0  0           0  0  0
   -4.7167   -2.3731    0.0000 C   0  0  0  0  0  0           0  0  0
   -4.7162   -3.2014    0.0000 C   0  0  0  0  0  0           0  0  0
   -3.9935   -3.6120    0.0000 C   0  0  0  0  0  0           0  0  0
   -3.2844   -3.1979    0.0000 C   0  0  0  0  0  0           0  0  0
    3.1595   -3.5935    0.0000 O   0  0  0  0  0  0           0  0  0
   -5.4338   -3.6157    0.0000 O   0  0  0  0  0  0           0  0  0
   -1.1393   -1.1250    0.0000 O   0  0  0  0  0  0           0  0  0
   -1.1375   -1.9542    0.0000 C   0  0  0  0  0  0           0  0  0
   -1.8542   -2.3708    0.0000 C   0  0  0  0  0  0           0  0  0
   -1.8517   -3.1952    0.0000 C   0  0  0  0  0  0           0  0  0
   -1.1342   -3.6092    0.0000 C   0  0  3  0  0  0           0  0  0
   -0.4175   -3.1926    0.0000 C   0  0  0  0  0  0           0  0  0
   -0.4183   -2.3619    0.0000 C   0  0  0  0  0  0           0  0  0
    3.1458   -1.9375    0.0000 O   0  0  0  0  0  0           0  0  0
   -5.4375   -1.9583    0.0000 O   0  0  0  0  0  0           0  0  0
   -1.1328   -4.4342    0.0000 C   0  0  0  0  0  0           0  0  0
   -0.4208   -4.8458    0.0000 C   0  0  0  0  0  0           0  0  0
   -0.4213   -5.6708    0.0000 O   0  0  0  0  0  0           0  0  0
    0.2939   -4.4337    0.0000 O   0  0  0  0  0  0           0  0  0
    0.2875   -6.0792    0.0000 C   0  0  0  0  0  0           0  0  0
    1.0000   -5.6625    0.0000 C   0  0  0  0  0  0           0  0  0
   -4.0000   -4.4333    0.0000 O   0  0  0  0  0  0           0  0  0
    1.7208   -4.4208    0.0000 O   0  0  0  0  0  0           0  0  0
  1  2  1  0     0  0
 12 16  1  0     0  0
  7  8  1  0     0  0
 18 17  2  0     0  0
 18 19  1  0     0  0
  3  4  1  0     0  0
  8  9  2  0     0  0
  9  4  1  0     0  0
  2 19  2  0     0  0
  1 10  2  0     0  0
  4  5  2  0     0  0
 18 23  1  0     0  0
 19 20  1  0     0  0
 20 21  1  0     0  0
 21 22  1  0     0  0
 22 23  1  0     0  0
 10 11  1  0     0  0
  8 24  1  0     0  0
 11 25  1  0     0  0
 11 12  2  0     0  0
 21 26  1  0     0  0
  5  6  1  0     0  0
 26 27  1  0     0  0
 12 13  1  0     0  0
 27 28  1  0     0  0
 23  3  2  0     0  0
 27 29  2  0     0  0
 13 14  2  0     0  0
 28 30  1  0     0  0
 14  1  1  0     0  0
 30 31  1  0     0  0
  6  7  2  0     0  0
 13 32  1  0     0  0
  7 15  1  0     0  0
  6 33  1  0     0  0
M  END
>  <prID>
642

>  <IDDB>
190975

>  <pIC50_HIV_Integrase>
5.721246399

>  <Q>
-4.889229967

>  <Activity_Integrase>
Inactive_Integrase

NA
NA
NA
NA
$$$$

  Accelrys05311914332D 1   1.00000     0.00000     0

 31 33  0     0  0            999 V2000
   -3.2875   -2.3750    0.0000 C   0  0  0  0  0  0           0  0  0
   -2.5708   -1.9583    0.0000 C   0  0  0  0  0  0           0  0  0
    0.2958   -1.9500    0.0000 C   0  0  0  0  0  0           0  0  0
    1.0125   -2.3625    0.0000 C   0  0  0  0  0  0           0  0  0
    1.0124   -3.1890    0.0000 C   0  0  0  0  0  0           0  0  0
    1.7282   -3.5972    0.0000 C   0  0  0  0  0  0           0  0  0
    2.4390   -3.1843    0.0000 C   0  0  0  0  0  0           0  0  0
    2.4338   -2.3547    0.0000 C   0  0  0  0  0  0           0  0  0
    1.7215   -1.9460    0.0000 C   0  0  0  0  0  0           0  0  0
   -4.0005   -1.9571    0.0000 C   0  0  0  0  0  0           0  0  0
   -4.7167   -2.3731    0.0000 C   0  0  0  0  0  0           0  0  0
   -4.7162   -3.2014    0.0000 C   0  0  0  0  0  0           0  0  0
   -3.9935   -3.6120    0.0000 C   0  0  0  0  0  0           0  0  0
   -3.2844   -3.1979    0.0000 C   0  0  0  0  0  0           0  0  0
    3.1595   -3.5935    0.0000 O   0  0  0  0  0  0           0  0  0
   -5.4338   -3.6157    0.0000 O   0  0  0  0  0  0           0  0  0
   -1.1393   -1.1250    0.0000 O   0  0  0  0  0  0           0  0  0
   -1.1375   -1.9542    0.0000 C   0  0  0  0  0  0           0  0  0
   -1.8542   -2.3708    0.0000 C   0  0  0  0  0  0           0  0  0
   -1.8517   -3.1952    0.0000 C   0  0  0  0  0  0           0  0  0
   -1.1342   -3.6092    0.0000 C   0  0  3  0  0  0           0  0  0
   -0.4175   -3.1926    0.0000 C   0  0  0  0  0  0           0  0  0
   -0.4183   -2.3619    0.0000 C   0  0  0  0  0  0           0  0  0
    3.1458   -1.9375    0.0000 O   0  0  0  0  0  0           0  0  0
   -5.4375   -1.9583    0.0000 O   0  0  0  0  0  0           0  0  0
   -1.1328   -4.4342    0.0000 C   0  0  0  0  0  0           0  0  0
   -0.4208   -4.8458    0.0000 C   0  0  0  0  0  0           0  0  0
   -0.4213   -5.6708    0.0000 O   0  0  0  0  0  0           0  0  0
    0.2939   -4.4337    0.0000 O   0  0  0  0  0  0           0  0  0
   -4.0000   -4.4333    0.0000 O   0  0  0  0  0  0           0  0  0
    1.7208   -4.4208    0.0000 O   0  0  0  0  0  0           0  0  0
  6  7  2  0     0  0
  7 15  1  0     0  0
  1  2  1  0     0  0
 12 16  1  0     0  0
  7  8  1  0     0  0
 18 17  2  0     0  0
 18 19  1  0     0  0
  3  4  1  0     0  0
  8  9  2  0     0  0
  9  4  1  0     0  0
  2 19  2  0     0  0
  1 10  2  0     0  0
  4  5  2  0     0  0
 18 23  1  0     0  0
 19 20  1  0     0  0
 20 21  1  0     0  0
 21 22  1  0     0  0
 22 23  1  0     0  0
 10 11  1  0     0  0
  8 24  1  0     0  0
 11 25  1  0     0  0
 11 12  2  0     0  0
 21 26  1  0     0  0
  5  6  1  0     0  0
 26 27  1  0     0  0
 12 13  1  0     0  0
 27 28  1  0     0  0
 23  3  2  0     0  0
 27 29  2  0     0  0
 13 14  2  0     0  0
 13 30  1  0     0  0
 14  1  1  0     0  0
  6 31  1  0     0  0
M  END
>  <prID>
643

>  <IDDB>
190976

>  <pIC50_HIV_Integrase>
6.698970004

>  <Q>
-5.015268629

>  <Activity_Integrase>
Active_Integrase

NA
NA
NA
NA
$$$$

  Accelrys05311914332D 1   1.00000     0.00000     0

 22 23  0     0  0            999 V2000
    3.9901   -4.3925    0.0000 C   0  0  0  0  0  0           0  0  0
    4.7026   -4.8008    0.0000 C   0  0  0  0  0  0           0  0  0
    5.4151   -4.3883    0.0000 C   0  0  0  0  0  0           0  0  0
    6.1276   -4.7967    0.0000 C   0  0  0  0  0  0           0  0  0
    6.8401   -4.3842    0.0000 C   0  0  0  0  0  0           0  0  0
    7.5526   -4.7925    0.0000 C   0  0  0  0  0  0           0  0  0
    8.2651   -4.3800    0.0000 C   0  0  0  0  0  0           0  0  0
    8.9776   -4.7883    0.0000 O   0  0  0  0  0  0           0  0  0
    6.1208   -5.6208    0.0000 O   0  0  0  0  0  0           0  0  0
    7.5458   -5.6167    0.0000 O   0  0  0  0  0  0           0  0  0
    8.2583   -3.5542    0.0000 O   0  0  0  0  0  0           0  0  0
    3.3208   -4.8750    0.0000 N   0  0  3  0  0  0           0  0  0
    3.7333   -3.6042    0.0000 C   0  0  0  0  0  0           0  0  0
    2.9083   -3.6042    0.0000 C   0  0  0  0  0  0           0  0  0
    2.6515   -4.3925    0.0000 C   0  0  0  0  0  0           0  0  0
    1.1861   -6.1208    0.0000 C   0  0  0  0  0  0           0  0  0
    1.1849   -6.9482    0.0000 C   0  0  0  0  0  0           0  0  0
    1.8997   -7.3610    0.0000 C   0  0  0  0  0  0           0  0  0
    2.6162   -6.9477    0.0000 C   0  0  0  0  0  0           0  0  0
    2.6133   -6.1172    0.0000 C   0  0  0  0  0  0           0  0  0
    1.8979   -5.7080    0.0000 C   0  0  0  0  0  0           0  0  0
    3.3250   -5.7000    0.0000 C   0  0  0  0  0  0           0  0  0
 14 15  2  0     0  0
  5  6  1  0     0  0
  1 13  2  0     0  0
  1  2  1  0     0  0
  6  7  1  0     0  0
  3  4  1  0     0  0
 12  1  1  0     0  0
 13 14  1  0     0  0
 15 12  1  0     0  0
  7  8  1  0     0  0
 16 17  2  0     0  0
  4  9  2  0     0  0
 17 18  1  0     0  0
  4  5  1  0     0  0
 18 19  2  0     0  0
  6 10  2  0     0  0
 19 20  1  0     0  0
  2  3  2  0     0  0
 20 21  2  0     0  0
 21 16  1  0     0  0
  7 11  2  0     0  0
 20 22  1  0     0  0
 22 12  1  0     0  0
M  END
>  <prID>
644

>  <IDDB>
195737

>  <pIC50_HIV_Integrase>
5.15490196

>  <Q>
0.226133892

>  <Activity_Integrase>
Inactive_Integrase

NA
NA
NA
NA
$$$$

  Accelrys05311914332D 1   1.00000     0.00000     0

 24 25  0     0  0            999 V2000
    3.9901   -4.3925    0.0000 C   0  0  0  0  0  0           0  0  0
    4.7026   -4.8008    0.0000 C   0  0  0  0  0  0           0  0  0
    5.4151   -4.3883    0.0000 C   0  0  0  0  0  0           0  0  0
    6.1276   -4.7967    0.0000 C   0  0  0  0  0  0           0  0  0
    6.8401   -4.3842    0.0000 C   0  0  0  0  0  0           0  0  0
    7.5526   -4.7925    0.0000 C   0  0  0  0  0  0           0  0  0
    8.2651   -4.3800    0.0000 C   0  0  0  0  0  0           0  0  0
    8.9776   -4.7883    0.0000 O   0  0  0  0  0  0           0  0  0
    6.1208   -5.6208    0.0000 O   0  0  0  0  0  0           0  0  0
    7.5458   -5.6167    0.0000 O   0  0  0  0  0  0           0  0  0
    8.2583   -3.5542    0.0000 O   0  0  0  0  0  0           0  0  0
    3.3208   -4.8750    0.0000 N   0  0  3  0  0  0           0  0  0
    3.7333   -3.6042    0.0000 C   0  0  0  0  0  0           0  0  0
    2.9083   -3.6042    0.0000 C   0  0  0  0  0  0           0  0  0
    2.6515   -4.3925    0.0000 C   0  0  0  0  0  0           0  0  0
    1.1861   -6.1208    0.0000 C   0  0  0  0  0  0           0  0  0
    1.1849   -6.9482    0.0000 C   0  0  0  0  0  0           0  0  0
    1.8997   -7.3610    0.0000 C   0  0  0  0  0  0           0  0  0
    2.6162   -6.9477    0.0000 C   0  0  0  0  0  0           0  0  0
    2.6133   -6.1172    0.0000 C   0  0  0  0  0  0           0  0  0
    1.8979   -5.7080    0.0000 C   0  0  0  0  0  0           0  0  0
    3.3250   -5.7000    0.0000 C   0  0  0  0  0  0           0  0  0
    9.6875   -4.3708    0.0000 C   0  0  0  0  0  0           0  0  0
   10.4000   -4.7833    0.0000 C   0  0  0  0  0  0           0  0  0
  1 13  2  0     0  0
  1  2  1  0     0  0
  6  7  1  0     0  0
  3  4  1  0     0  0
 12  1  1  0     0  0
 13 14  1  0     0  0
 15 12  1  0     0  0
  7  8  1  0     0  0
 16 17  2  0     0  0
  4  9  2  0     0  0
 17 18  1  0     0  0
  4  5  1  0     0  0
 18 19  2  0     0  0
  6 10  2  0     0  0
 19 20  1  0     0  0
  2  3  2  0     0  0
 20 21  2  0     0  0
 21 16  1  0     0  0
  7 11  2  0     0  0
 20 22  1  0     0  0
 22 12  1  0     0  0
 14 15  2  0     0  0
  8 23  1  0     0  0
  5  6  1  0     0  0
 23 24  1  0     0  0
M  END
>  <prID>
645

>  <IDDB>
195738

>  <pIC50_HIV_Integrase>
5.124938737

>  <Q>
0.350448123

>  <Activity_Integrase>
Inactive_Integrase

NA
NA
NA
NA
$$$$

  Accelrys05311914332D 1   1.00000     0.00000     0

 23 24  0     0  0            999 V2000
    4.8610   -4.7717    0.0000 C   0  0  0  0  0  0           0  0  0
    5.5735   -5.1800    0.0000 C   0  0  0  0  0  0           0  0  0
    6.2860   -4.7675    0.0000 C   0  0  0  0  0  0           0  0  0
    6.9985   -5.1758    0.0000 C   0  0  0  0  0  0           0  0  0
    7.7110   -4.7633    0.0000 C   0  0  0  0  0  0           0  0  0
    8.4235   -5.1717    0.0000 C   0  0  0  0  0  0           0  0  0
    9.1360   -4.7592    0.0000 C   0  0  0  0  0  0           0  0  0
    9.8485   -5.1675    0.0000 O   0  0  0  0  0  0           0  0  0
    6.9917   -6.0000    0.0000 O   0  0  0  0  0  0           0  0  0
    8.4167   -5.9958    0.0000 O   0  0  0  0  0  0           0  0  0
    9.1292   -3.9333    0.0000 O   0  0  0  0  0  0           0  0  0
    4.1917   -5.2541    0.0000 N   0  0  3  0  0  0           0  0  0
    4.6042   -3.9834    0.0000 C   0  0  0  0  0  0           0  0  0
    3.7792   -3.9834    0.0000 C   0  0  0  0  0  0           0  0  0
    3.5224   -4.7717    0.0000 C   0  0  0  0  0  0           0  0  0
    2.0569   -6.5000    0.0000 C   0  0  0  0  0  0           0  0  0
    2.0557   -7.3273    0.0000 C   0  0  0  0  0  0           0  0  0
    2.7706   -7.7402    0.0000 C   0  0  0  0  0  0           0  0  0
    3.4870   -7.3269    0.0000 C   0  0  0  0  0  0           0  0  0
    3.4841   -6.4963    0.0000 C   0  0  0  0  0  0           0  0  0
    2.7688   -6.0872    0.0000 C   0  0  0  0  0  0           0  0  0
    4.1958   -6.0792    0.0000 C   0  0  0  0  0  0           0  0  0
    1.3375   -7.7333    0.0000 Cl  0  0  0  0  0  0           0  0  0
  5  6  1  0     0  0
  1 13  2  0     0  0
  1  2  1  0     0  0
  6  7  1  0     0  0
  3  4  1  0     0  0
 12  1  1  0     0  0
 13 14  1  0     0  0
 15 12  1  0     0  0
  7  8  1  0     0  0
 16 17  2  0     0  0
  4  9  2  0     0  0
 17 18  1  0     0  0
  4  5  1  0     0  0
 18 19  2  0     0  0
  6 10  2  0     0  0
 19 20  1  0     0  0
  2  3  2  0     0  0
 20 21  2  0     0  0
 21 16  1  0     0  0
  7 11  2  0     0  0
 20 22  1  0     0  0
 22 12  1  0     0  0
 14 15  2  0     0  0
 17 23  1  0     0  0
M  END
>  <prID>
646

>  <IDDB>
195739

>  <pIC50_HIV_Integrase>
4.187086643

>  <Q>
-0.721934898

>  <Activity_Integrase>
Inactive_Integrase

NA
NA
NA
NA
$$$$

  Accelrys05311914332D 1   1.00000     0.00000     0

 25 26  0     0  0            999 V2000
    4.2068    0.0408    0.0000 C   0  0  0  0  0  0           0  0  0
    4.9193   -0.3675    0.0000 C   0  0  0  0  0  0           0  0  0
    5.6318    0.0450    0.0000 C   0  0  0  0  0  0           0  0  0
    6.3443   -0.3633    0.0000 C   0  0  0  0  0  0           0  0  0
    7.0568    0.0492    0.0000 C   0  0  0  0  0  0           0  0  0
    7.7693   -0.3592    0.0000 C   0  0  0  0  0  0           0  0  0
    8.4818    0.0533    0.0000 C   0  0  0  0  0  0           0  0  0
    9.1943   -0.3550    0.0000 O   0  0  0  0  0  0           0  0  0
    6.3375   -1.1875    0.0000 O   0  0  0  0  0  0           0  0  0
    7.7625   -1.1833    0.0000 O   0  0  0  0  0  0           0  0  0
    8.4750    0.8792    0.0000 O   0  0  0  0  0  0           0  0  0
    3.5375   -0.4416    0.0000 N   0  0  3  0  0  0           0  0  0
    3.9500    0.8291    0.0000 C   0  0  0  0  0  0           0  0  0
    3.1250    0.8291    0.0000 C   0  0  0  0  0  0           0  0  0
    2.8682    0.0408    0.0000 C   0  0  0  0  0  0           0  0  0
    1.4027   -1.6875    0.0000 C   0  0  0  0  0  0           0  0  0
    1.4016   -2.5148    0.0000 C   0  0  0  0  0  0           0  0  0
    2.1164   -2.9277    0.0000 C   0  0  0  0  0  0           0  0  0
    2.8328   -2.5144    0.0000 C   0  0  0  0  0  0           0  0  0
    2.8300   -1.6838    0.0000 C   0  0  0  0  0  0           0  0  0
    2.1146   -1.2747    0.0000 C   0  0  0  0  0  0           0  0  0
    3.5417   -1.2667    0.0000 C   0  0  0  0  0  0           0  0  0
    9.9042    0.0625    0.0000 C   0  0  0  0  0  0           0  0  0
   10.6167   -0.3500    0.0000 C   0  0  0  0  0  0           0  0  0
    0.6833   -2.9208    0.0000 Cl  0  0  0  0  0  0           0  0  0
  1  2  1  0     0  0
  6  7  1  0     0  0
  3  4  1  0     0  0
 12  1  1  0     0  0
 13 14  1  0     0  0
 15 12  1  0     0  0
  7  8  1  0     0  0
 16 17  2  0     0  0
  4  9  2  0     0  0
 17 18  1  0     0  0
  4  5  1  0     0  0
 18 19  2  0     0  0
  6 10  2  0     0  0
 19 20  1  0     0  0
  2  3  2  0     0  0
 20 21  2  0     0  0
 21 16  1  0     0  0
  7 11  2  0     0  0
 20 22  1  0     0  0
 22 12  1  0     0  0
 14 15  2  0     0  0
  8 23  1  0     0  0
  5  6  1  0     0  0
 23 24  1  0     0  0
  1 13  2  0     0  0
 17 25  1  0     0  0
M  END
>  <prID>
647

>  <IDDB>
195740

>  <pIC50_HIV_Integrase>
4.045757491

>  <Q>
-0.597620667

>  <Activity_Integrase>
Inactive_Integrase

NA
NA
NA
NA
$$$$

  Accelrys05311914332D 1   1.00000     0.00000     0

 23 24  0     0  0            999 V2000
    6.9596   -6.8317    0.0000 C   0  0  0  0  0  0           0  0  0
    7.9796   -7.4163    0.0000 C   0  0  0  0  0  0           0  0  0
    8.9997   -6.8257    0.0000 C   0  0  0  0  0  0           0  0  0
   10.0198   -7.4103    0.0000 C   0  0  0  0  0  0           0  0  0
   11.0399   -6.8197    0.0000 C   0  0  0  0  0  0           0  0  0
   12.0600   -7.4044    0.0000 C   0  0  0  0  0  0           0  0  0
   13.0801   -6.8138    0.0000 C   0  0  0  0  0  0           0  0  0
   14.1002   -7.3984    0.0000 O   0  0  0  0  0  0           0  0  0
   10.0198   -8.5903    0.0000 O   0  0  0  0  0  0           0  0  0
   12.0600   -8.5843    0.0000 O   0  0  0  0  0  0           0  0  0
   13.0801   -5.6314    0.0000 O   0  0  0  0  0  0           0  0  0
    6.0013   -7.5224    0.0000 N   0  0  3  0  0  0           0  0  0
    6.5919   -5.7031    0.0000 C   0  0  0  0  0  0           0  0  0
    5.4107   -5.7031    0.0000 C   0  0  0  0  0  0           0  0  0
    5.0431   -6.8317    0.0000 C   0  0  0  0  0  0           0  0  0
    2.9432   -9.3061    0.0000 C   0  0  0  0  0  0           0  0  0
    2.9432  -10.4906    0.0000 C   0  0  0  0  0  0           0  0  0
    3.9667  -11.0817    0.0000 C   0  0  0  0  0  0           0  0  0
    4.9882  -10.4900    0.0000 C   0  0  0  0  0  0           0  0  0
    4.9882   -9.3008    0.0000 C   0  0  0  0  0  0           0  0  0
    3.9641   -8.7151    0.0000 C   0  0  0  0  0  0           0  0  0
    6.0013   -8.7037    0.0000 C   0  0  0  0  0  0           0  0  0
    1.9149  -11.0719    0.0000 F   0  0  0  0  0  0           0  0  0
  5  6  1  0     0  0
  1 13  2  0     0  0
  1  2  1  0     0  0
  6  7  1  0     0  0
  3  4  1  0     0  0
 12  1  1  0     0  0
 13 14  1  0     0  0
 15 12  1  0     0  0
  7  8  1  0     0  0
 16 17  2  0     0  0
  4  9  2  0     0  0
 17 18  1  0     0  0
  4  5  1  0     0  0
 18 19  2  0     0  0
  6 10  2  0     0  0
 19 20  1  0     0  0
  2  3  2  0     0  0
 20 21  2  0     0  0
 21 16  1  0     0  0
  7 11  2  0     0  0
 20 22  1  0     0  0
 22 12  1  0     0  0
 14 15  2  0     0  0
 17 23  1  0     0  0
M  END
>  <prID>
648

>  <IDDB>
195741

>  <pIC50_HIV_Integrase>
4.142667504

>  <Q>
-2.264777531

>  <Activity_Integrase>
Inactive_Integrase

NA
NA
NA
NA
$$$$

  Accelrys05311914332D 1   1.00000     0.00000     0

 25 26  0     0  0            999 V2000
    4.2068    0.0408    0.0000 C   0  0  0  0  0  0           0  0  0
    4.9193   -0.3675    0.0000 C   0  0  0  0  0  0           0  0  0
    5.6318    0.0450    0.0000 C   0  0  0  0  0  0           0  0  0
    6.3443   -0.3633    0.0000 C   0  0  0  0  0  0           0  0  0
    7.0568    0.0492    0.0000 C   0  0  0  0  0  0           0  0  0
    7.7693   -0.3592    0.0000 C   0  0  0  0  0  0           0  0  0
    8.4818    0.0533    0.0000 C   0  0  0  0  0  0           0  0  0
    9.1943   -0.3550    0.0000 O   0  0  0  0  0  0           0  0  0
    6.3375   -1.1875    0.0000 O   0  0  0  0  0  0           0  0  0
    7.7625   -1.1833    0.0000 O   0  0  0  0  0  0           0  0  0
    8.4750    0.8792    0.0000 O   0  0  0  0  0  0           0  0  0
    3.5375   -0.4416    0.0000 N   0  0  3  0  0  0           0  0  0
    3.9500    0.8291    0.0000 C   0  0  0  0  0  0           0  0  0
    3.1250    0.8291    0.0000 C   0  0  0  0  0  0           0  0  0
    2.8682    0.0408    0.0000 C   0  0  0  0  0  0           0  0  0
    1.4027   -1.6875    0.0000 C   0  0  0  0  0  0           0  0  0
    1.4016   -2.5148    0.0000 C   0  0  0  0  0  0           0  0  0
    2.1164   -2.9277    0.0000 C   0  0  0  0  0  0           0  0  0
    2.8328   -2.5144    0.0000 C   0  0  0  0  0  0           0  0  0
    2.8300   -1.6838    0.0000 C   0  0  0  0  0  0           0  0  0
    2.1146   -1.2747    0.0000 C   0  0  0  0  0  0           0  0  0
    3.5417   -1.2667    0.0000 C   0  0  0  0  0  0           0  0  0
    9.9042    0.0625    0.0000 C   0  0  0  0  0  0           0  0  0
   10.6167   -0.3500    0.0000 C   0  0  0  0  0  0           0  0  0
    0.6833   -2.9208    0.0000 F   0  0  0  0  0  0           0  0  0
  1  2  1  0     0  0
  6  7  1  0     0  0
  3  4  1  0     0  0
 12  1  1  0     0  0
 13 14  1  0     0  0
 15 12  1  0     0  0
  7  8  1  0     0  0
 16 17  2  0     0  0
  4  9  2  0     0  0
 17 18  1  0     0  0
  4  5  1  0     0  0
 18 19  2  0     0  0
  6 10  2  0     0  0
 19 20  1  0     0  0
  2  3  2  0     0  0
 20 21  2  0     0  0
 21 16  1  0     0  0
  7 11  2  0     0  0
 20 22  1  0     0  0
 22 12  1  0     0  0
 14 15  2  0     0  0
  8 23  1  0     0  0
  5  6  1  0     0  0
 23 24  1  0     0  0
  1 13  2  0     0  0
 17 25  1  0     0  0
M  END
>  <prID>
649

>  <IDDB>
195742

>  <pIC50_HIV_Integrase>
4.022276395

>  <Q>
-2.1404633

>  <Activity_Integrase>
Inactive_Integrase

NA
NA
NA
NA
$$$$

  Accelrys05311914332D 1   1.00000     0.00000     0

 23 24  0     0  0            999 V2000
    4.8610   -4.7717    0.0000 C   0  0  0  0  0  0           0  0  0
    5.5735   -5.1800    0.0000 C   0  0  0  0  0  0           0  0  0
    6.2860   -4.7675    0.0000 C   0  0  0  0  0  0           0  0  0
    6.9985   -5.1758    0.0000 C   0  0  0  0  0  0           0  0  0
    7.7110   -4.7633    0.0000 C   0  0  0  0  0  0           0  0  0
    8.4235   -5.1717    0.0000 C   0  0  0  0  0  0           0  0  0
    9.1360   -4.7592    0.0000 C   0  0  0  0  0  0           0  0  0
    9.8485   -5.1675    0.0000 O   0  0  0  0  0  0           0  0  0
    6.9917   -6.0000    0.0000 O   0  0  0  0  0  0           0  0  0
    8.4167   -5.9958    0.0000 O   0  0  0  0  0  0           0  0  0
    9.1292   -3.9333    0.0000 O   0  0  0  0  0  0           0  0  0
    4.1917   -5.2541    0.0000 N   0  0  3  0  0  0           0  0  0
    4.6042   -3.9834    0.0000 C   0  0  0  0  0  0           0  0  0
    3.7792   -3.9834    0.0000 C   0  0  0  0  0  0           0  0  0
    3.5224   -4.7717    0.0000 C   0  0  0  0  0  0           0  0  0
    2.0569   -6.5000    0.0000 C   0  0  0  0  0  0           0  0  0
    2.0557   -7.3273    0.0000 C   0  0  0  0  0  0           0  0  0
    2.7706   -7.7402    0.0000 C   0  0  0  0  0  0           0  0  0
    3.4870   -7.3269    0.0000 C   0  0  0  0  0  0           0  0  0
    3.4841   -6.4963    0.0000 C   0  0  0  0  0  0           0  0  0
    2.7688   -6.0872    0.0000 C   0  0  0  0  0  0           0  0  0
    4.1958   -6.0792    0.0000 C   0  0  0  0  0  0           0  0  0
    1.3375   -7.7333    0.0000 C   0  0  0  0  0  0           0  0  0
  5  6  1  0     0  0
  1 13  2  0     0  0
  1  2  1  0     0  0
  6  7  1  0     0  0
  3  4  1  0     0  0
 12  1  1  0     0  0
 13 14  1  0     0  0
 15 12  1  0     0  0
  7  8  1  0     0  0
 16 17  2  0     0  0
  4  9  2  0     0  0
 17 18  1  0     0  0
  4  5  1  0     0  0
 18 19  2  0     0  0
  6 10  2  0     0  0
 19 20  1  0     0  0
  2  3  2  0     0  0
 20 21  2  0     0  0
 21 16  1  0     0  0
  7 11  2  0     0  0
 20 22  1  0     0  0
 22 12  1  0     0  0
 14 15  2  0     0  0
 17 23  1  0     0  0
M  END
>  <prID>
650

>  <IDDB>
195743

>  <pIC50_HIV_Integrase>
4.173925197

>  <Q>
0.039207904

>  <Activity_Integrase>
Inactive_Integrase

NA
NA
NA
NA
$$$$

  Accelrys05311914332D 1   1.00000     0.00000     0

 25 26  0     0  0            999 V2000
    6.4693    0.9575    0.0000 C   0  0  0  0  0  0           0  0  0
    7.1818    0.5492    0.0000 C   0  0  0  0  0  0           0  0  0
    7.8943    0.9617    0.0000 C   0  0  0  0  0  0           0  0  0
    8.6068    0.5533    0.0000 C   0  0  0  0  0  0           0  0  0
    9.3193    0.9658    0.0000 C   0  0  0  0  0  0           0  0  0
   10.0318    0.5575    0.0000 C   0  0  0  0  0  0           0  0  0
   10.7443    0.9700    0.0000 C   0  0  0  0  0  0           0  0  0
   11.4568    0.5617    0.0000 O   0  0  0  0  0  0           0  0  0
    8.6000   -0.2708    0.0000 O   0  0  0  0  0  0           0  0  0
   10.0250   -0.2667    0.0000 O   0  0  0  0  0  0           0  0  0
   10.7375    1.7958    0.0000 O   0  0  0  0  0  0           0  0  0
    5.8000    0.4750    0.0000 N   0  0  3  0  0  0           0  0  0
    6.2125    1.7458    0.0000 C   0  0  0  0  0  0           0  0  0
    5.3875    1.7458    0.0000 C   0  0  0  0  0  0           0  0  0
    5.1307    0.9575    0.0000 C   0  0  0  0  0  0           0  0  0
    3.6652   -0.7708    0.0000 C   0  0  0  0  0  0           0  0  0
    3.6641   -1.5982    0.0000 C   0  0  0  0  0  0           0  0  0
    4.3789   -2.0110    0.0000 C   0  0  0  0  0  0           0  0  0
    5.0953   -1.5977    0.0000 C   0  0  0  0  0  0           0  0  0
    5.0925   -0.7672    0.0000 C   0  0  0  0  0  0           0  0  0
    4.3771   -0.3580    0.0000 C   0  0  0  0  0  0           0  0  0
    5.8042   -0.3500    0.0000 C   0  0  0  0  0  0           0  0  0
   12.1667    0.9792    0.0000 C   0  0  0  0  0  0           0  0  0
   12.8792    0.5667    0.0000 C   0  0  0  0  0  0           0  0  0
    2.9458   -2.0042    0.0000 C   0  0  0  0  0  0           0  0  0
  1  2  1  0     0  0
  6  7  1  0     0  0
  3  4  1  0     0  0
 12  1  1  0     0  0
 13 14  1  0     0  0
 15 12  1  0     0  0
  7  8  1  0     0  0
 16 17  2  0     0  0
  4  9  2  0     0  0
 17 18  1  0     0  0
  4  5  1  0     0  0
 18 19  2  0     0  0
  6 10  2  0     0  0
 19 20  1  0     0  0
  2  3  2  0     0  0
 20 21  2  0     0  0
 21 16  1  0     0  0
  7 11  2  0     0  0
 20 22  1  0     0  0
 22 12  1  0     0  0
 14 15  2  0     0  0
  8 23  1  0     0  0
  5  6  1  0     0  0
 23 24  1  0     0  0
  1 13  2  0     0  0
 17 25  1  0     0  0
M  END
>  <prID>
651

>  <IDDB>
195744

>  <pIC50_HIV_Integrase>
4.055517328

>  <Q>
0.163522135

>  <Activity_Integrase>
Inactive_Integrase

NA
NA
NA
NA
$$$$

  Accelrys05311914332D 1   1.00000     0.00000     0

 24 25  0     0  0            999 V2000
    4.8610   -4.7717    0.0000 C   0  0  0  0  0  0           0  0  0
    5.5735   -5.1800    0.0000 C   0  0  0  0  0  0           0  0  0
    6.2860   -4.7675    0.0000 C   0  0  0  0  0  0           0  0  0
    6.9985   -5.1758    0.0000 C   0  0  0  0  0  0           0  0  0
    7.7110   -4.7633    0.0000 C   0  0  0  0  0  0           0  0  0
    8.4235   -5.1717    0.0000 C   0  0  0  0  0  0           0  0  0
    9.1360   -4.7592    0.0000 C   0  0  0  0  0  0           0  0  0
    9.8485   -5.1675    0.0000 O   0  0  0  0  0  0           0  0  0
    6.9917   -6.0000    0.0000 O   0  0  0  0  0  0           0  0  0
    8.4167   -5.9958    0.0000 O   0  0  0  0  0  0           0  0  0
    9.1292   -3.9333    0.0000 O   0  0  0  0  0  0           0  0  0
    4.1917   -5.2541    0.0000 N   0  0  3  0  0  0           0  0  0
    4.6042   -3.9834    0.0000 C   0  0  0  0  0  0           0  0  0
    3.7792   -3.9834    0.0000 C   0  0  0  0  0  0           0  0  0
    3.5224   -4.7717    0.0000 C   0  0  0  0  0  0           0  0  0
    2.0569   -6.5000    0.0000 C   0  0  0  0  0  0           0  0  0
    2.0557   -7.3273    0.0000 C   0  0  0  0  0  0           0  0  0
    2.7706   -7.7402    0.0000 C   0  0  0  0  0  0           0  0  0
    3.4870   -7.3269    0.0000 C   0  0  0  0  0  0           0  0  0
    3.4841   -6.4963    0.0000 C   0  0  0  0  0  0           0  0  0
    2.7688   -6.0872    0.0000 C   0  0  0  0  0  0           0  0  0
    4.1958   -6.0792    0.0000 C   0  0  0  0  0  0           0  0  0
    1.3375   -7.7333    0.0000 O   0  0  0  0  0  0           0  0  0
    0.6208   -7.3208    0.0000 C   0  0  0  0  0  0           0  0  0
  1 13  2  0     0  0
  1  2  1  0     0  0
  6  7  1  0     0  0
  3  4  1  0     0  0
 12  1  1  0     0  0
 13 14  1  0     0  0
 15 12  1  0     0  0
  7  8  1  0     0  0
 16 17  2  0     0  0
  4  9  2  0     0  0
 17 18  1  0     0  0
  4  5  1  0     0  0
 18 19  2  0     0  0
  6 10  2  0     0  0
 19 20  1  0     0  0
  2  3  2  0     0  0
 20 21  2  0     0  0
 21 16  1  0     0  0
  7 11  2  0     0  0
 20 22  1  0     0  0
 22 12  1  0     0  0
 14 15  2  0     0  0
 17 23  1  0     0  0
  5  6  1  0     0  0
 23 24  1  0     0  0
M  END
>  <prID>
652

>  <IDDB>
195745

>  <pIC50_HIV_Integrase>
4.387216143

>  <Q>
-0.031684661

>  <Activity_Integrase>
Inactive_Integrase

NA
NA
NA
NA
$$$$

  Accelrys05311914332D 1   1.00000     0.00000     0

 26 27  0     0  0            999 V2000
    6.4693    0.9575    0.0000 C   0  0  0  0  0  0           0  0  0
    7.1818    0.5492    0.0000 C   0  0  0  0  0  0           0  0  0
    7.8943    0.9617    0.0000 C   0  0  0  0  0  0           0  0  0
    8.6068    0.5533    0.0000 C   0  0  0  0  0  0           0  0  0
    9.3193    0.9658    0.0000 C   0  0  0  0  0  0           0  0  0
   10.0318    0.5575    0.0000 C   0  0  0  0  0  0           0  0  0
   10.7443    0.9700    0.0000 C   0  0  0  0  0  0           0  0  0
   11.4568    0.5617    0.0000 O   0  0  0  0  0  0           0  0  0
    8.6000   -0.2708    0.0000 O   0  0  0  0  0  0           0  0  0
   10.0250   -0.2667    0.0000 O   0  0  0  0  0  0           0  0  0
   10.7375    1.7958    0.0000 O   0  0  0  0  0  0           0  0  0
    5.8000    0.4750    0.0000 N   0  0  3  0  0  0           0  0  0
    6.2125    1.7458    0.0000 C   0  0  0  0  0  0           0  0  0
    5.3875    1.7458    0.0000 C   0  0  0  0  0  0           0  0  0
    5.1307    0.9575    0.0000 C   0  0  0  0  0  0           0  0  0
    3.6652   -0.7708    0.0000 C   0  0  0  0  0  0           0  0  0
    3.6641   -1.5982    0.0000 C   0  0  0  0  0  0           0  0  0
    4.3789   -2.0110    0.0000 C   0  0  0  0  0  0           0  0  0
    5.0953   -1.5977    0.0000 C   0  0  0  0  0  0           0  0  0
    5.0925   -0.7672    0.0000 C   0  0  0  0  0  0           0  0  0
    4.3771   -0.3580    0.0000 C   0  0  0  0  0  0           0  0  0
    5.8042   -0.3500    0.0000 C   0  0  0  0  0  0           0  0  0
   12.1667    0.9792    0.0000 C   0  0  0  0  0  0           0  0  0
   12.8792    0.5667    0.0000 C   0  0  0  0  0  0           0  0  0
    2.9458   -2.0042    0.0000 O   0  0  0  0  0  0           0  0  0
    2.2292   -1.5917    0.0000 C   0  0  0  0  0  0           0  0  0
  6  7  1  0     0  0
  3  4  1  0     0  0
 12  1  1  0     0  0
 13 14  1  0     0  0
 15 12  1  0     0  0
  7  8  1  0     0  0
 16 17  2  0     0  0
  4  9  2  0     0  0
 17 18  1  0     0  0
  4  5  1  0     0  0
 18 19  2  0     0  0
  6 10  2  0     0  0
 19 20  1  0     0  0
  2  3  2  0     0  0
 20 21  2  0     0  0
 21 16  1  0     0  0
  7 11  2  0     0  0
 20 22  1  0     0  0
 22 12  1  0     0  0
 14 15  2  0     0  0
  8 23  1  0     0  0
  5  6  1  0     0  0
 23 24  1  0     0  0
  1 13  2  0     0  0
 17 25  1  0     0  0
  1  2  1  0     0  0
 25 26  1  0     0  0
M  END
>  <prID>
653

>  <IDDB>
195746

>  <pIC50_HIV_Integrase>
4.301029996

>  <Q>
0.09262957

>  <Activity_Integrase>
Inactive_Integrase

NA
NA
NA
NA
$$$$

  Accelrys05311914332D 1   1.00000     0.00000     0

 25 26  0     0  0            999 V2000
    6.9860   -4.4717    0.0000 C   0  0  0  0  0  0           0  0  0
    7.6985   -4.8800    0.0000 C   0  0  0  0  0  0           0  0  0
    8.4110   -4.4675    0.0000 C   0  0  0  0  0  0           0  0  0
    9.1235   -4.8758    0.0000 C   0  0  0  0  0  0           0  0  0
    9.8360   -4.4633    0.0000 C   0  0  0  0  0  0           0  0  0
   10.5485   -4.8717    0.0000 C   0  0  0  0  0  0           0  0  0
   11.2610   -4.4592    0.0000 C   0  0  0  0  0  0           0  0  0
   11.9735   -4.8675    0.0000 O   0  0  0  0  0  0           0  0  0
    9.1167   -5.7000    0.0000 O   0  0  0  0  0  0           0  0  0
   10.5417   -5.6958    0.0000 O   0  0  0  0  0  0           0  0  0
   11.2542   -3.6333    0.0000 O   0  0  0  0  0  0           0  0  0
    6.3167   -4.9541    0.0000 N   0  0  3  0  0  0           0  0  0
    6.7292   -3.6834    0.0000 C   0  0  0  0  0  0           0  0  0
    5.9042   -3.6834    0.0000 C   0  0  0  0  0  0           0  0  0
    5.6474   -4.4717    0.0000 C   0  0  0  0  0  0           0  0  0
    4.1819   -6.2000    0.0000 C   0  0  0  0  0  0           0  0  0
    4.1807   -7.0273    0.0000 C   0  0  0  0  0  0           0  0  0
    4.8956   -7.4402    0.0000 C   0  0  0  0  0  0           0  0  0
    5.6120   -7.0269    0.0000 C   0  0  0  0  0  0           0  0  0
    5.6091   -6.1963    0.0000 C   0  0  0  0  0  0           0  0  0
    4.8938   -5.7872    0.0000 C   0  0  0  0  0  0           0  0  0
    6.3208   -5.7792    0.0000 C   0  0  0  0  0  0           0  0  0
    3.4625   -7.4333    0.0000 N   0  3  0  0  0  0           0  0  0
    2.7458   -7.0208    0.0000 O   0  0  0  0  0  0           0  0  0
    3.4583   -8.2583    0.0000 O   0  5  0  0  0  0           0  0  0
  1  2  1  0     0  0
  6  7  1  0     0  0
  3  4  1  0     0  0
 12  1  1  0     0  0
 13 14  1  0     0  0
 15 12  1  0     0  0
  7  8  1  0     0  0
 16 17  2  0     0  0
  4  9  2  0     0  0
 17 18  1  0     0  0
  4  5  1  0     0  0
 18 19  2  0     0  0
  6 10  2  0     0  0
 19 20  1  0     0  0
  2  3  2  0     0  0
 20 21  2  0     0  0
 21 16  1  0     0  0
  7 11  2  0     0  0
 20 22  1  0     0  0
 22 12  1  0     0  0
 14 15  2  0     0  0
 17 23  1  0     0  0
  5  6  1  0     0  0
 23 24  2  0     0  0
  1 13  2  0     0  0
 23 25  1  0     0  0
M  CHG  2  23   1  25  -1
M  END
>  <prID>
654

>  <IDDB>
195747

>  <pIC50_HIV_Integrase>
4.036212173

>  <Q>
0.034786803

>  <Activity_Integrase>
Inactive_Integrase

NA
NA
NA
NA
$$$$

  Accelrys05311914332D 1   1.00000     0.00000     0

 27 28  0     0  0            999 V2000
    6.9860   -4.4717    0.0000 C   0  0  0  0  0  0           0  0  0
    7.6985   -4.8800    0.0000 C   0  0  0  0  0  0           0  0  0
    8.4110   -4.4675    0.0000 C   0  0  0  0  0  0           0  0  0
    9.1235   -4.8758    0.0000 C   0  0  0  0  0  0           0  0  0
    9.8360   -4.4633    0.0000 C   0  0  0  0  0  0           0  0  0
   10.5485   -4.8717    0.0000 C   0  0  0  0  0  0           0  0  0
   11.2610   -4.4592    0.0000 C   0  0  0  0  0  0           0  0  0
   11.9735   -4.8675    0.0000 O   0  0  0  0  0  0           0  0  0
    9.1167   -5.7000    0.0000 O   0  0  0  0  0  0           0  0  0
   10.5417   -5.6958    0.0000 O   0  0  0  0  0  0           0  0  0
   11.2542   -3.6333    0.0000 O   0  0  0  0  0  0           0  0  0
    6.3167   -4.9541    0.0000 N   0  0  3  0  0  0           0  0  0
    6.7292   -3.6834    0.0000 C   0  0  0  0  0  0           0  0  0
    5.9042   -3.6834    0.0000 C   0  0  0  0  0  0           0  0  0
    5.6474   -4.4717    0.0000 C   0  0  0  0  0  0           0  0  0
    4.1819   -6.2000    0.0000 C   0  0  0  0  0  0           0  0  0
    4.1807   -7.0273    0.0000 C   0  0  0  0  0  0           0  0  0
    4.8956   -7.4402    0.0000 C   0  0  0  0  0  0           0  0  0
    5.6120   -7.0269    0.0000 C   0  0  0  0  0  0           0  0  0
    5.6091   -6.1963    0.0000 C   0  0  0  0  0  0           0  0  0
    4.8938   -5.7872    0.0000 C   0  0  0  0  0  0           0  0  0
    6.3208   -5.7792    0.0000 C   0  0  0  0  0  0           0  0  0
    3.4625   -7.4333    0.0000 N   0  3  0  0  0  0           0  0  0
    2.7458   -7.0208    0.0000 O   0  0  0  0  0  0           0  0  0
    3.4583   -8.2583    0.0000 O   0  5  0  0  0  0           0  0  0
   12.6833   -4.4500    0.0000 C   0  0  0  0  0  0           0  0  0
   13.3958   -4.8625    0.0000 C   0  0  0  0  0  0           0  0  0
  3  4  1  0     0  0
 12  1  1  0     0  0
 13 14  1  0     0  0
 15 12  1  0     0  0
  7  8  1  0     0  0
 16 17  2  0     0  0
  4  9  2  0     0  0
 17 18  1  0     0  0
  4  5  1  0     0  0
 18 19  2  0     0  0
  6 10  2  0     0  0
 19 20  1  0     0  0
  2  3  2  0     0  0
 20 21  2  0     0  0
 21 16  1  0     0  0
  7 11  2  0     0  0
 20 22  1  0     0  0
 22 12  1  0     0  0
 14 15  2  0     0  0
 17 23  1  0     0  0
  5  6  1  0     0  0
 23 24  2  0     0  0
  1 13  2  0     0  0
 23 25  1  0     0  0
  1  2  1  0     0  0
  8 26  1  0     0  0
  6  7  1  0     0  0
 26 27  1  0     0  0
M  CHG  2  23   1  25  -1
M  END
>  <prID>
655

>  <IDDB>
195748

>  <pIC50_HIV_Integrase>
4.346787486

>  <Q>
0.159101034

>  <Activity_Integrase>
Inactive_Integrase

NA
NA
NA
NA
$$$$

  Accelrys05311914292D 1   1.00000     0.00000     0

 50 52  0     0  0            999 V2000
    3.8840   -5.2014    0.0000 O   0  0  0  0  0  0           0  0  0
    3.8840   -6.8564    0.0000 O   0  0  0  0  0  0           0  0  0
    2.4500   -7.6840    0.0000 O   0  0  0  0  0  0           0  0  0
    1.0201   -6.8565    0.0000 O   0  0  0  0  0  0           0  0  0
    2.4457   -5.2014    0.0000 O   0  0  0  0  0  0           0  0  0
    0.2496   -5.6522    0.0000 O   0  0  0  0  0  0           0  0  0
    3.1669   -5.6172    0.0000 C   0  0  2  0  0  0           0  0  0
    3.1669   -6.4447    0.0000 C   0  0  1  0  0  0           0  0  0
    2.4457   -6.8565    0.0000 C   0  0  2  0  0  0           0  0  0
    1.7330   -6.4448    0.0000 C   0  0  1  0  0  0           0  0  0
    1.7330   -5.6173    0.0000 C   0  0  1  0  0  0           0  0  0
    1.0201   -5.2015    0.0000 C   0  0  0  0  0  0           0  0  0
    6.0300   -5.6172    0.0000 C   0  0  0  0  0  0           0  0  0
    6.7425   -5.2047    0.0000 C   0  0  0  0  0  0           0  0  0
    7.4550   -5.6130    0.0000 C   0  0  0  0  0  0           0  0  0
    8.1675   -5.2005    0.0000 C   0  0  0  0  0  0           0  0  0
    8.8800   -5.6088    0.0000 C   0  0  0  0  0  0           0  0  0
    9.5925   -5.1963    0.0000 C   0  0  0  0  0  0           0  0  0
   10.3050   -5.6047    0.0000 C   0  0  0  0  0  0           0  0  0
   11.0175   -5.1922    0.0000 C   0  0  0  0  0  0           0  0  0
   11.7300   -5.6005    0.0000 C   0  0  0  0  0  0           0  0  0
   12.4425   -5.1880    0.0000 C   0  0  0  0  0  0           0  0  0
    5.3258   -1.9047    0.0000 C   0  0  0  0  0  0           0  0  0
    6.0383   -1.4922    0.0000 C   0  0  0  0  0  0           0  0  0
    6.7508   -1.9005    0.0000 C   0  0  0  0  0  0           0  0  0
    7.4633   -1.4880    0.0000 C   0  0  0  0  0  0           0  0  0
    8.1758   -1.8963    0.0000 C   0  0  0  0  0  0           0  0  0
    8.8883   -1.4838    0.0000 C   0  0  0  0  0  0           0  0  0
    9.6008   -1.8922    0.0000 C   0  0  0  0  0  0           0  0  0
   10.3133   -1.4797    0.0000 C   0  0  0  0  0  0           0  0  0
   11.0258   -1.8880    0.0000 C   0  0  0  0  0  0           0  0  0
   11.7383   -1.4755    0.0000 C   0  0  0  0  0  0           0  0  0
    4.6027   -5.6208    0.0000 C   0  0  0  0  0  0           0  0  0
    4.6016   -6.4482    0.0000 C   0  0  0  0  0  0           0  0  0
    5.3164   -6.8610    0.0000 C   0  0  0  0  0  0           0  0  0
    6.0328   -6.4477    0.0000 C   0  0  0  0  0  0           0  0  0
    5.3146   -5.2080    0.0000 C   0  0  0  0  0  0           0  0  0
    3.8986   -1.9083    0.0000 C   0  0  0  0  0  0           0  0  0
    3.8974   -2.7357    0.0000 C   0  0  0  0  0  0           0  0  0
    4.6122   -3.1485    0.0000 C   0  0  0  0  0  0           0  0  0
    5.3287   -2.7352    0.0000 C   0  0  0  0  0  0           0  0  0
    4.6104   -1.4955    0.0000 C   0  0  0  0  0  0           0  0  0
    4.6042   -0.6667    0.0000 C   0  0  0  0  0  0           0  0  0
    3.8875   -0.2542    0.0000 O   0  0  0  0  0  0           0  0  0
    5.3167   -0.2500    0.0000 O   0  0  0  0  0  0           0  0  0
    3.1792   -1.4917    0.0000 O   0  0  0  0  0  0           0  0  0
    4.6042   -3.9708    0.0000 O   0  0  0  0  0  0           0  0  0
    5.3167   -4.3833    0.0000 C   0  0  0  0  0  0           0  0  0
    6.0292   -3.9667    0.0000 O   0  0  0  0  0  0           0  0  0
    5.3083   -7.6833    0.0000 O   0  0  0  0  0  0           0  0  0
 25 26  1  0     0  0
  6 12  1  0     0  0
 26 27  1  0     0  0
 13 14  1  0     0  0
 27 28  1  0     0  0
 11  5  1  0     0  0
 28 29  1  0     0  0
 14 15  1  0     0  0
 29 30  1  0     0  0
  5  7  1  0     0  0
 30 31  1  0     0  0
 15 16  1  0     0  0
 31 32  1  0     0  0
  7  8  1  0     0  0
 16 17  1  0     0  0
 33 34  2  0     0  0
  8  9  1  0     0  0
 34 35  1  0     0  0
 17 18  1  0     0  0
 35 36  2  0     0  0
 36 13  1  0     0  0
  9 10  1  0     0  0
 13 37  2  0     0  0
 37 33  1  0     0  0
 18 19  1  0     0  0
 10 11  1  0     0  0
 38 39  2  0     0  0
 19 20  1  0     0  0
 39 40  1  0     0  0
 11 12  1  1     0  0
 40 41  2  0     0  0
 41 23  1  0     0  0
 20 21  1  0     0  0
 23 42  2  0     0  0
 42 38  1  0     0  0
  7  1  1  1     0  0
 42 43  1  0     0  0
 21 22  1  0     0  0
 43 44  2  0     0  0
  8  2  1  6     0  0
 43 45  1  0     0  0
  9  3  1  1     0  0
 38 46  1  0     0  0
 23 24  1  0     0  0
 40 47  1  0     0  0
 10  4  1  6     0  0
 47 48  1  0     0  0
 48 37  1  0     0  0
 24 25  1  0     0  0
 48 49  2  0     0  0
 35 50  1  0     0  0
 33  1  1  0     0  0
M  END
>  <prID>
656

>  <IDDB>
208905

>  <pIC50_HIV_Integrase>
4.167491087

>  <Q>
-11.24639868

>  <Activity_Integrase>
Inactive_Integrase

NA
NA
NA
NA
$$$$

  Accelrys05311914292D 1   1.00000     0.00000     0

 50 52  0     0  0            999 V2000
    5.3131   -9.3397    0.0000 O   0  0  0  0  0  0           0  0  0
    3.8792  -10.1673    0.0000 O   0  0  0  0  0  0           0  0  0
    2.4493   -9.3398    0.0000 O   0  0  0  0  0  0           0  0  0
    3.8749   -7.6847    0.0000 O   0  0  0  0  0  0           0  0  0
    1.6788   -8.1355    0.0000 O   0  0  0  0  0  0           0  0  0
    4.5961   -8.1005    0.0000 C   0  0  2  0  0  0           0  0  0
    4.5961   -8.9280    0.0000 C   0  0  1  0  0  0           0  0  0
    3.8749   -9.3398    0.0000 C   0  0  2  0  0  0           0  0  0
    3.1621   -8.9281    0.0000 C   0  0  2  0  0  0           0  0  0
    3.1621   -8.1006    0.0000 C   0  0  1  0  0  0           0  0  0
    2.4493   -7.6848    0.0000 C   0  0  0  0  0  0           0  0  0
    5.3083   -7.6833    0.0000 O   0  0  0  0  0  0           0  0  0
   12.4425   -5.1880    0.0000 C   0  0  0  0  0  0           0  0  0
   13.1550   -5.5963    0.0000 C   0  0  0  0  0  0           0  0  0
   13.8675   -5.1838    0.0000 C   0  0  0  0  0  0           0  0  0
   14.5800   -5.5922    0.0000 C   0  0  0  0  0  0           0  0  0
   15.2925   -5.1797    0.0000 C   0  0  0  0  0  0           0  0  0
   16.0050   -5.5880    0.0000 C   0  0  0  0  0  0           0  0  0
   16.7175   -5.1755    0.0000 C   0  0  0  0  0  0           0  0  0
   17.4300   -5.5838    0.0000 C   0  0  0  0  0  0           0  0  0
   18.1425   -5.1713    0.0000 C   0  0  0  0  0  0           0  0  0
    3.8840   -5.2014    0.0000 O   0  0  0  0  0  0           0  0  0
    6.0300   -5.6172    0.0000 C   0  0  0  0  0  0           0  0  0
    6.7425   -5.2047    0.0000 C   0  0  0  0  0  0           0  0  0
    7.4550   -5.6130    0.0000 C   0  0  0  0  0  0           0  0  0
    8.1675   -5.2005    0.0000 C   0  0  0  0  0  0           0  0  0
    8.8800   -5.6088    0.0000 C   0  0  0  0  0  0           0  0  0
    9.5925   -5.1963    0.0000 C   0  0  0  0  0  0           0  0  0
   10.3050   -5.6047    0.0000 C   0  0  0  0  0  0           0  0  0
   11.0175   -5.1922    0.0000 C   0  0  0  0  0  0           0  0  0
   11.7300   -5.6005    0.0000 C   0  0  0  0  0  0           0  0  0
    5.3258   -1.9047    0.0000 C   0  0  0  0  0  0           0  0  0
    4.6027   -5.6208    0.0000 C   0  0  0  0  0  0           0  0  0
    4.6016   -6.4482    0.0000 C   0  0  0  0  0  0           0  0  0
    5.3164   -6.8610    0.0000 C   0  0  0  0  0  0           0  0  0
    6.0328   -6.4477    0.0000 C   0  0  0  0  0  0           0  0  0
    5.3146   -5.2080    0.0000 C   0  0  0  0  0  0           0  0  0
    3.8986   -1.9083    0.0000 C   0  0  0  0  0  0           0  0  0
    3.8974   -2.7357    0.0000 C   0  0  0  0  0  0           0  0  0
    4.6122   -3.1485    0.0000 C   0  0  0  0  0  0           0  0  0
    5.3287   -2.7352    0.0000 C   0  0  0  0  0  0           0  0  0
    4.6104   -1.4955    0.0000 C   0  0  0  0  0  0           0  0  0
    4.6042   -0.6667    0.0000 C   0  0  0  0  0  0           0  0  0
    3.8875   -0.2542    0.0000 O   0  0  0  0  0  0           0  0  0
    5.3167   -0.2500    0.0000 O   0  0  0  0  0  0           0  0  0
    3.1792   -1.4917    0.0000 O   0  0  0  0  0  0           0  0  0
    4.6042   -3.9708    0.0000 O   0  0  0  0  0  0           0  0  0
    5.3167   -4.3833    0.0000 C   0  0  0  0  0  0           0  0  0
    6.0292   -3.9667    0.0000 O   0  0  0  0  0  0           0  0  0
    6.0375   -1.4875    0.0000 C   0  0  0  0  0  0           0  0  0
 10  4  1  0     0  0
 26 27  1  0     0  0
 13 14  1  0     0  0
 27 28  1  0     0  0
  4  6  1  0     0  0
 28 29  1  0     0  0
 14 15  1  0     0  0
 29 30  1  0     0  0
  6  7  1  0     0  0
 30 31  1  0     0  0
 31 13  1  0     0  0
 15 16  1  0     0  0
  7  8  1  0     0  0
 16 17  1  0     0  0
 33 34  2  0     0  0
  8  9  1  0     0  0
 34 35  1  0     0  0
 17 18  1  0     0  0
 35 36  2  0     0  0
 36 23  1  0     0  0
  9 10  1  0     0  0
 23 37  2  0     0  0
 37 33  1  0     0  0
 18 19  1  0     0  0
 10 11  1  1     0  0
 38 39  2  0     0  0
 19 20  1  0     0  0
 39 40  1  0     0  0
  7  1  1  6     0  0
 40 41  2  0     0  0
 41 32  1  0     0  0
 20 21  1  0     0  0
 32 42  2  0     0  0
 42 38  1  0     0  0
  8  2  1  1     0  0
 42 43  1  0     0  0
  9  3  1  1     0  0
 43 44  2  0     0  0
 43 45  1  0     0  0
 23 24  1  0     0  0
 38 46  1  0     0  0
  6 12  1  1     0  0
 40 47  1  0     0  0
 24 25  1  0     0  0
 47 48  1  0     0  0
 48 37  1  0     0  0
  5 11  1  0     0  0
 48 49  2  0     0  0
 35 12  1  0     0  0
 33 22  1  0     0  0
 25 26  1  0     0  0
 32 50  1  0     0  0
M  END
>  <prID>
657

>  <IDDB>
208906

>  <pIC50_HIV_Integrase>
4.301029996

>  <Q>
-11.24358016

>  <Activity_Integrase>
Inactive_Integrase

NA
NA
NA
NA
$$$$

  Accelrys05311914292D 1   1.00000     0.00000     0

 24 26  0     0  0            999 V2000
    7.2649   -4.6682    0.0000 C   0  0  0  0  0  0           0  0  0
    6.4376   -4.6829    0.0000 C   0  0  0  0  0  0           0  0  0
    6.0386   -5.4055    0.0000 C   0  0  0  0  0  0           0  0  0
    6.4656   -6.1139    0.0000 C   0  0  0  0  0  0           0  0  0
    7.2959   -6.0951    0.0000 C   0  0  0  0  0  0           0  0  0
    7.6912   -5.3719    0.0000 C   0  0  0  0  0  0           0  0  0
    5.1152   -6.6833    0.0000 C   0  0  0  0  0  0           0  0  0
    5.1141   -7.5107    0.0000 C   0  0  0  0  0  0           0  0  0
    5.8289   -7.9235    0.0000 C   0  0  0  0  0  0           0  0  0
    6.5453   -7.5102    0.0000 N   0  0  0  0  0  0           0  0  0
    6.5425   -6.6797    0.0000 C   0  0  0  0  0  0           0  0  0
    5.8271   -6.2705    0.0000 C   0  0  0  0  0  0           0  0  0
    3.6861   -6.6833    0.0000 C   0  0  0  0  0  0           0  0  0
    3.6849   -7.5107    0.0000 C   0  0  0  0  0  0           0  0  0
    4.3997   -7.9235    0.0000 C   0  0  0  0  0  0           0  0  0
    4.3979   -6.2705    0.0000 C   0  0  0  0  0  0           0  0  0
    4.3917   -5.4417    0.0000 S   0  0  3  0  0  0           0  0  0
    3.5667   -5.4417    0.0000 O   0  0  0  0  0  0           0  0  0
    4.3958   -4.5875    0.0000 O   0  0  0  0  0  0           0  0  0
    5.2164   -5.4216    0.0000 N   0  0  0  0  0  0           0  0  0
    6.0208   -3.9625    0.0000 C   0  0  3  0  0  0           0  0  0
    5.1958   -3.9583    0.0000 F   0  0  0  0  0  0           0  0  0
    6.4292   -3.2458    0.0000 F   0  0  0  0  0  0           0  0  0
    5.6042   -3.2458    0.0000 F   0  0  0  0  0  0           0  0  0
 12  7  1  0     0  0
  6  1  1  0     0  0
  1  2  2  0     0  0
 13 14  1  0     0  0
  3  4  2  0     0  0
 14 15  2  0     0  0
 15  8  1  0     0  0
  7  8  2  0     0  0
  7 16  1  0     0  0
 16 13  2  0     0  0
 16 17  1  0     0  0
  8  9  1  0     0  0
 17 18  2  0     0  0
  4  5  1  0     0  0
 17 19  2  0     0  0
  9 10  2  0     0  0
 17 20  1  0     0  0
 20  3  1  0     0  0
  2  3  1  0     0  0
  2 21  1  0     0  0
 10 11  1  0     0  0
 21 22  1  0     0  0
  5  6  2  0     0  0
 21 23  1  0     0  0
 11 12  2  0     0  0
 21 24  1  0     0  0
M  END
>  <prID>
658

>  <IDDB>
209006

>  <pIC50_HIV_Integrase>
3

>  <Q>
-8.197991823

>  <Activity_Integrase>
Inactive_Integrase

NA
NA
NA
NA
$$$$

  Accelrys05311914292D 1   1.00000     0.00000     0

 22 24  0     0  0            999 V2000
    6.6774   -2.8765    0.0000 C   0  0  0  0  0  0           0  0  0
    5.8501   -2.8913    0.0000 C   0  0  0  0  0  0           0  0  0
    5.4511   -3.6139    0.0000 C   0  0  0  0  0  0           0  0  0
    5.8781   -4.3222    0.0000 C   0  0  0  0  0  0           0  0  0
    6.7084   -4.3034    0.0000 C   0  0  0  0  0  0           0  0  0
    7.1037   -3.5803    0.0000 C   0  0  0  0  0  0           0  0  0
    4.5277   -4.8916    0.0000 C   0  0  0  0  0  0           0  0  0
    4.5266   -5.7190    0.0000 C   0  0  0  0  0  0           0  0  0
    5.2414   -6.1319    0.0000 C   0  0  0  0  0  0           0  0  0
    5.9578   -5.7185    0.0000 N   0  0  0  0  0  0           0  0  0
    5.9550   -4.8880    0.0000 C   0  0  0  0  0  0           0  0  0
    5.2396   -4.4789    0.0000 C   0  0  0  0  0  0           0  0  0
    3.0986   -4.8916    0.0000 C   0  0  0  0  0  0           0  0  0
    3.0974   -5.7190    0.0000 C   0  0  0  0  0  0           0  0  0
    3.8122   -6.1319    0.0000 C   0  0  0  0  0  0           0  0  0
    3.8104   -4.4789    0.0000 C   0  0  0  0  0  0           0  0  0
    3.8042   -3.6500    0.0000 S   0  0  3  0  0  0           0  0  0
    2.9792   -3.6500    0.0000 O   0  0  0  0  0  0           0  0  0
    3.8083   -2.7958    0.0000 O   0  0  0  0  0  0           0  0  0
    4.6289   -3.6300    0.0000 N   0  0  0  0  0  0           0  0  0
    7.9250   -3.5792    0.0000 F   0  0  0  0  0  0           0  0  0
    7.0833   -2.1583    0.0000 Cl  0  0  0  0  0  0           0  0  0
  5  6  2  0     0  0
 11 12  2  0     0  0
 12  7  1  0     0  0
  6  1  1  0     0  0
  1  2  2  0     0  0
 13 14  1  0     0  0
  3  4  2  0     0  0
 14 15  2  0     0  0
 15  8  1  0     0  0
  7  8  2  0     0  0
  7 16  1  0     0  0
 16 13  2  0     0  0
 16 17  1  0     0  0
  8  9  1  0     0  0
 17 18  2  0     0  0
  4  5  1  0     0  0
 17 19  2  0     0  0
  9 10  2  0     0  0
 17 20  1  0     0  0
 20  3  1  0     0  0
  2  3  1  0     0  0
  6 21  1  0     0  0
 10 11  1  0     0  0
  1 22  1  0     0  0
M  END
>  <prID>
659

>  <IDDB>
209008

>  <pIC50_HIV_Integrase>
3.070581074

>  <Q>
-3.067933583

>  <Activity_Integrase>
Inactive_Integrase

NA
NA
NA
NA
$$$$

  Accelrys05311914292D 1   1.00000     0.00000     0

 17 18  0     0  0            999 V2000
    4.6289   -3.6300    0.0000 N   0  0  0  0  0  0           0  0  0
    5.3414   -3.2175    0.0000 C   0  0  0  0  0  0           0  0  0
    6.0539   -3.6300    0.0000 C   0  0  0  0  0  0           0  0  0
    6.7664   -3.2175    0.0000 C   0  0  0  0  0  0           0  0  0
    4.5277   -4.8916    0.0000 C   0  0  0  0  0  0           0  0  0
    4.5266   -5.7190    0.0000 C   0  0  0  0  0  0           0  0  0
    5.2414   -6.1319    0.0000 C   0  0  0  0  0  0           0  0  0
    5.9578   -5.7185    0.0000 N   0  0  0  0  0  0           0  0  0
    5.9550   -4.8880    0.0000 C   0  0  0  0  0  0           0  0  0
    5.2396   -4.4789    0.0000 C   0  0  0  0  0  0           0  0  0
    3.0986   -4.8916    0.0000 C   0  0  0  0  0  0           0  0  0
    3.0974   -5.7190    0.0000 C   0  0  0  0  0  0           0  0  0
    3.8122   -6.1319    0.0000 C   0  0  0  0  0  0           0  0  0
    3.8104   -4.4789    0.0000 C   0  0  0  0  0  0           0  0  0
    3.8042   -3.6500    0.0000 S   0  0  3  0  0  0           0  0  0
    2.9792   -3.6500    0.0000 O   0  0  0  0  0  0           0  0  0
    3.8083   -2.7958    0.0000 O   0  0  0  0  0  0           0  0  0
  2  3  1  0     0  0
  9 10  2  0     0  0
 10  5  1  0     0  0
  5  6  2  0     0  0
  1  2  1  0     0  0
 11 12  1  0     0  0
  6  7  1  0     0  0
 12 13  2  0     0  0
 13  6  1  0     0  0
  3  4  1  0     0  0
  5 14  1  0     0  0
 14 11  2  0     0  0
  7  8  2  0     0  0
 14 15  1  0     0  0
 15 16  2  0     0  0
  8  9  1  0     0  0
 15 17  2  0     0  0
 15  1  1  0     0  0
M  END
>  <prID>
660

>  <IDDB>
209009

>  <pIC50_HIV_Integrase>
3.045757491

>  <Q>
-0.861106488

>  <Activity_Integrase>
Inactive_Integrase

NA
NA
NA
NA
$$$$

  Accelrys05311914292D 1   1.00000     0.00000     0

 20 22  0     0  0            999 V2000
    5.4944   -3.7958    0.0000 C   0  0  0  0  0  0           0  0  0
    5.4932   -4.6232    0.0000 C   0  0  0  0  0  0           0  0  0
    6.2081   -5.0360    0.0000 C   0  0  0  0  0  0           0  0  0
    6.9245   -4.6227    0.0000 C   0  0  0  0  0  0           0  0  0
    6.9216   -3.7922    0.0000 C   0  0  0  0  0  0           0  0  0
    6.2063   -3.3830    0.0000 C   0  0  0  0  0  0           0  0  0
    6.2083   -2.5625    0.0000 N   0  0  3  0  0  0           0  0  0
    6.8776   -2.0800    0.0000 C   0  0  0  0  0  0           0  0  0
    6.6208   -1.2917    0.0000 C   0  0  0  0  0  0           0  0  0
    5.7958   -1.2917    0.0000 C   0  0  0  0  0  0           0  0  0
    5.5390   -2.0800    0.0000 N   0  0  3  0  0  0           0  0  0
    3.4417   -2.5625    0.0000 O   0  0  0  0  0  0           0  0  0
    4.1110   -2.0800    0.0000 C   0  0  0  0  0  0           0  0  0
    3.8542   -1.2917    0.0000 C   0  0  0  0  0  0           0  0  0
    3.0292   -1.2917    0.0000 C   0  0  0  0  0  0           0  0  0
    2.7724   -2.0800    0.0000 C   0  0  0  0  0  0           0  0  0
    4.8250   -2.4917    0.0000 C   0  0  0  0  0  0           0  0  0
    4.8208   -3.3167    0.0000 O   0  0  0  0  0  0           0  0  0
    7.5875   -2.4917    0.0000 O   0  0  0  0  0  0           0  0  0
    5.0792   -0.8792    0.0000 C   0  0  0  0  0  0           0  0  0
  7  8  1  0     0  0
  9 10  2  0     0  0
 11  7  1  0     0  0
 15 16  2  0     0  0
  5  6  2  0     0  0
  6  1  1  0     0  0
 13 14  2  0     0  0
 10 11  1  0     0  0
  1  2  2  0     0  0
  3  4  2  0     0  0
 12 13  1  0     0  0
 14 15  1  0     0  0
 16 12  1  0     0  0
  8  9  1  0     0  0
 13 17  1  0     0  0
 17 11  1  0     0  0
  7  6  1  0     0  0
 17 18  2  0     0  0
  4  5  1  0     0  0
  8 19  2  0     0  0
  2  3  1  0     0  0
 10 20  1  0     0  0
M  END
>  <prID>
661

>  <IDDB>
209013

>  <pIC50_HIV_Integrase>
3.346787486

>  <Q>
0.115084716

>  <Activity_Integrase>
Inactive_Integrase

NA
NA
NA
NA
$$$$

  Accelrys05311914292D 1   1.00000     0.00000     0

 22 24  0     0  0            999 V2000
    4.4667   -2.3917    0.0000 C   0  0  0  0  0  0           0  0  0
    5.1792   -2.8042    0.0000 C   0  0  0  0  0  0           0  0  0
    5.8917   -2.3917    0.0000 C   0  0  0  0  0  0           0  0  0
    6.6042   -2.8042    0.0000 C   0  0  0  0  0  0           0  0  0
    3.7974   -2.8741    0.0000 O   0  0  0  0  0  0           0  0  0
    4.2099   -1.6034    0.0000 C   0  0  0  0  0  0           0  0  0
    3.3849   -1.6034    0.0000 C   0  0  0  0  0  0           0  0  0
    3.1281   -2.3917    0.0000 C   0  0  0  0  0  0           0  0  0
    7.2736   -4.1083    0.0000 C   0  0  0  0  0  0           0  0  0
    7.2724   -4.9357    0.0000 C   0  0  0  0  0  0           0  0  0
    7.9872   -5.3485    0.0000 C   0  0  0  0  0  0           0  0  0
    8.7037   -4.9352    0.0000 C   0  0  0  0  0  0           0  0  0
    8.7008   -4.1047    0.0000 C   0  0  0  0  0  0           0  0  0
    7.9854   -3.6955    0.0000 C   0  0  0  0  0  0           0  0  0
    7.9875   -2.8750    0.0000 N   0  0  3  0  0  0           0  0  0
    8.6568   -2.3925    0.0000 C   0  0  0  0  0  0           0  0  0
    8.4000   -1.6042    0.0000 C   0  0  0  0  0  0           0  0  0
    7.5750   -1.6042    0.0000 C   0  0  0  0  0  0           0  0  0
    7.3182   -2.3925    0.0000 N   0  0  3  0  0  0           0  0  0
    6.6000   -3.6292    0.0000 O   0  0  0  0  0  0           0  0  0
    9.3667   -2.8042    0.0000 O   0  0  0  0  0  0           0  0  0
    6.8583   -1.1917    0.0000 C   0  0  0  0  0  0           0  0  0
  2  3  2  0     0  0
 11 12  2  0     0  0
  1  2  1  0     0  0
 12 13  1  0     0  0
  3  4  1  0     0  0
 13 14  2  0     0  0
 14  9  1  0     0  0
 18 19  1  0     0  0
  5  1  1  0     0  0
  6  7  1  0     0  0
 16 17  1  0     0  0
  8  5  1  0     0  0
  7  8  2  0     0  0
 15 16  1  0     0  0
 17 18  2  0     0  0
 19 15  1  0     0  0
  4 19  1  0     0  0
 15 14  1  0     0  0
  9 10  2  0     0  0
  4 20  2  0     0  0
  1  6  2  0     0  0
 16 21  2  0     0  0
 10 11  1  0     0  0
 18 22  1  0     0  0
M  END
>  <prID>
662

>  <IDDB>
209014

>  <pIC50_HIV_Integrase>
3.187086643

>  <Q>
0.348428353

>  <Activity_Integrase>
Inactive_Integrase

NA
NA
NA
NA
$$$$

  Accelrys05311914292D 1   1.00000     0.00000     0

 21 23  0     0  0            999 V2000
    5.7165   -3.8116    0.0000 C   0  0  0  0  0  0           0  0  0
    5.0054   -3.3886    0.0000 C   0  0  0  0  0  0           0  0  0
    4.2857   -3.7929    0.0000 C   0  0  0  0  0  0           0  0  0
    4.2758   -4.6200    0.0000 C   0  0  0  0  0  0           0  0  0
    4.9916   -5.0411    0.0000 C   0  0  0  0  0  0           0  0  0
    5.7084   -4.6344    0.0000 C   0  0  0  0  0  0           0  0  0
    7.1536   -2.1729    0.0000 C   0  0  0  0  0  0           0  0  0
    7.1560   -1.3479    0.0000 C   0  0  0  0  0  0           0  0  0
    5.7320   -1.3437    0.0000 C   0  0  0  0  0  0           0  0  0
    5.7295   -2.1687    0.0000 C   0  0  0  0  0  0           0  0  0
    6.4445   -2.5875    0.0000 N   0  0  3  0  0  0           0  0  0
    4.3069   -1.3458    0.0000 C   0  0  0  0  0  0           0  0  0
    4.3057   -2.1732    0.0000 C   0  0  0  0  0  0           0  0  0
    5.0206   -2.5860    0.0000 C   0  0  0  0  0  0           0  0  0
    5.0188   -0.9330    0.0000 C   0  0  0  0  0  0           0  0  0
    7.8667   -0.9292    0.0000 O   0  0  0  0  0  0           0  0  0
    7.8625   -2.5833    0.0000 O   0  0  0  0  0  0           0  0  0
    6.4375   -3.4125    0.0000 C   0  0  0  0  0  0           0  0  0
    3.5610   -5.0202    0.0000 N   0  3  0  0  0  0           0  0  0
    2.7452   -4.4994    0.0000 O   0  5  0  0  0  0           0  0  0
    3.5577   -5.8667    0.0000 O   0  0  0  0  0  0           0  0  0
 11  7  1  0     0  0
  8  9  1  0     0  0
  5  6  2  0     0  0
  6  1  1  0     0  0
 12 13  2  0     0  0
  7  8  1  0     0  0
 13 14  1  0     0  0
 14 10  2  0     0  0
  1  2  2  0     0  0
  9 15  2  0     0  0
 15 12  1  0     0  0
  3  4  2  0     0  0
  8 16  2  0     0  0
  7 17  2  0     0  0
  4  5  1  0     0  0
 11 18  1  0     0  0
 18  1  1  0     0  0
  2  3  1  0     0  0
  4 19  1  0     0  0
  9 10  1  0     0  0
 19 20  1  0     0  0
 10 11  1  0     0  0
 19 21  2  0     0  0
M  CHG  2  19   1  20  -1
M  END
>  <prID>
663

>  <IDDB>
209016

>  <pIC50_HIV_Integrase>
3.477555766

>  <Q>
0.907578046

>  <Activity_Integrase>
Inactive_Integrase

NA
NA
NA
NA
$$$$

  Accelrys05311914292D 1   1.00000     0.00000     0

 19 21  0     0  0            999 V2000
    5.7165   -3.8116    0.0000 C   0  0  0  0  0  0           0  0  0
    5.0054   -3.3886    0.0000 C   0  0  0  0  0  0           0  0  0
    4.2857   -3.7929    0.0000 C   0  0  0  0  0  0           0  0  0
    4.2758   -4.6200    0.0000 C   0  0  0  0  0  0           0  0  0
    4.9916   -5.0411    0.0000 C   0  0  0  0  0  0           0  0  0
    5.7084   -4.6344    0.0000 C   0  0  0  0  0  0           0  0  0
    7.1536   -2.1729    0.0000 C   0  0  0  0  0  0           0  0  0
    7.1560   -1.3479    0.0000 C   0  0  0  0  0  0           0  0  0
    5.7320   -1.3437    0.0000 C   0  0  0  0  0  0           0  0  0
    5.7295   -2.1687    0.0000 C   0  0  0  0  0  0           0  0  0
    6.4445   -2.5875    0.0000 N   0  0  3  0  0  0           0  0  0
    4.3069   -1.3458    0.0000 C   0  0  0  0  0  0           0  0  0
    4.3057   -2.1732    0.0000 C   0  0  0  0  0  0           0  0  0
    5.0206   -2.5860    0.0000 C   0  0  0  0  0  0           0  0  0
    5.0188   -0.9330    0.0000 C   0  0  0  0  0  0           0  0  0
    7.8667   -0.9292    0.0000 O   0  0  0  0  0  0           0  0  0
    7.8625   -2.5833    0.0000 O   0  0  0  0  0  0           0  0  0
    6.4375   -3.4125    0.0000 C   0  0  0  0  0  0           0  0  0
    3.5610   -5.0202    0.0000 Br  0  0  0  0  0  0           0  0  0
  9 10  1  0     0  0
 10 11  1  0     0  0
 11  7  1  0     0  0
  8  9  1  0     0  0
  5  6  2  0     0  0
  6  1  1  0     0  0
 12 13  2  0     0  0
  7  8  1  0     0  0
 13 14  1  0     0  0
 14 10  2  0     0  0
  1  2  2  0     0  0
  9 15  2  0     0  0
 15 12  1  0     0  0
  3  4  2  0     0  0
  8 16  2  0     0  0
  7 17  2  0     0  0
  4  5  1  0     0  0
 11 18  1  0     0  0
 18  1  1  0     0  0
  2  3  1  0     0  0
  4 19  1  0     0  0
M  END
>  <prID>
664

>  <IDDB>
209017

>  <pIC50_HIV_Integrase>
3.22184875

>  <Q>
1.070621029

>  <Activity_Integrase>
Inactive_Integrase

NA
NA
NA
NA
$$$$

  Accelrys05311914302D 1   1.00000     0.00000     0

 22 25  0     0  0            999 V2000
    4.9916   -5.0411    0.0000 C   0  0  0  0  0  0           0  0  0
    4.9905   -5.8685    0.0000 C   0  0  0  0  0  0           0  0  0
    5.7053   -6.2814    0.0000 C   0  0  0  0  0  0           0  0  0
    6.4217   -5.8680    0.0000 C   0  0  0  0  0  0           0  0  0
    6.4189   -5.0375    0.0000 N   0  0  0  0  0  0           0  0  0
    5.7035   -4.6283    0.0000 C   0  0  0  0  0  0           0  0  0
    5.7165   -3.8116    0.0000 C   0  0  0  0  0  0           0  0  0
    5.0054   -3.3886    0.0000 C   0  0  0  0  0  0           0  0  0
    4.2857   -3.7929    0.0000 C   0  0  0  0  0  0           0  0  0
    4.2758   -4.6200    0.0000 C   0  0  0  0  0  0           0  0  0
    7.1536   -2.1729    0.0000 C   0  0  0  0  0  0           0  0  0
    7.1560   -1.3479    0.0000 C   0  0  0  0  0  0           0  0  0
    5.7320   -1.3437    0.0000 C   0  0  0  0  0  0           0  0  0
    5.7295   -2.1687    0.0000 C   0  0  0  0  0  0           0  0  0
    6.4445   -2.5875    0.0000 N   0  0  3  0  0  0           0  0  0
    4.3069   -1.3458    0.0000 C   0  0  0  0  0  0           0  0  0
    4.3057   -2.1732    0.0000 C   0  0  0  0  0  0           0  0  0
    5.0206   -2.5860    0.0000 C   0  0  0  0  0  0           0  0  0
    5.0188   -0.9330    0.0000 C   0  0  0  0  0  0           0  0  0
    7.8667   -0.9292    0.0000 O   0  0  0  0  0  0           0  0  0
    7.8625   -2.5833    0.0000 O   0  0  0  0  0  0           0  0  0
    6.4375   -3.4125    0.0000 C   0  0  0  0  0  0           0  0  0
 11 12  1  0     0  0
  2  3  1  0     0  0
  5  6  2  0     0  0
  6  1  1  0     0  0
  1  2  2  0     0  0
  3  4  2  0     0  0
 13 14  1  0     0  0
 14 15  1  0     0  0
 15 11  1  0     0  0
 12 13  1  0     0  0
  7  8  2  0     0  0
 16 17  2  0     0  0
  8  9  1  0     0  0
 17 18  1  0     0  0
 18 14  2  0     0  0
  4  5  1  0     0  0
 13 19  2  0     0  0
 19 16  1  0     0  0
  9 10  2  0     0  0
 12 20  2  0     0  0
 10  1  1  0     0  0
 11 21  2  0     0  0
  6  7  1  0     0  0
 15 22  1  0     0  0
 22  7  1  0     0  0
M  END
>  <prID>
665

>  <IDDB>
209018

>  <pIC50_HIV_Integrase>
3.15490196

>  <Q>
1.145484606

>  <Activity_Integrase>
Inactive_Integrase

NA
NA
NA
NA
$$$$

  Accelrys05311914292D 1   1.00000     0.00000     0

 21 23  0     0  0            999 V2000
    4.9916   -5.0411    0.0000 C   0  0  0  0  0  0           0  0  0
    5.7035   -4.6283    0.0000 C   0  0  0  0  0  0           0  0  0
    5.7165   -3.8116    0.0000 C   0  0  0  0  0  0           0  0  0
    5.0054   -3.3886    0.0000 C   0  0  0  0  0  0           0  0  0
    4.2857   -3.7929    0.0000 C   0  0  0  0  0  0           0  0  0
    4.2758   -4.6200    0.0000 C   0  0  0  0  0  0           0  0  0
    7.1536   -2.1729    0.0000 C   0  0  0  0  0  0           0  0  0
    7.1560   -1.3479    0.0000 C   0  0  0  0  0  0           0  0  0
    5.7320   -1.3437    0.0000 C   0  0  0  0  0  0           0  0  0
    5.7295   -2.1687    0.0000 C   0  0  0  0  0  0           0  0  0
    6.4445   -2.5875    0.0000 N   0  0  3  0  0  0           0  0  0
    4.3069   -1.3458    0.0000 C   0  0  0  0  0  0           0  0  0
    4.3057   -2.1732    0.0000 C   0  0  0  0  0  0           0  0  0
    5.0206   -2.5860    0.0000 C   0  0  0  0  0  0           0  0  0
    5.0188   -0.9330    0.0000 C   0  0  0  0  0  0           0  0  0
    7.8667   -0.9292    0.0000 O   0  0  0  0  0  0           0  0  0
    7.8625   -2.5833    0.0000 O   0  0  0  0  0  0           0  0  0
    6.4375   -3.4125    0.0000 C   0  0  0  0  0  0           0  0  0
    6.4125   -5.0375    0.0000 N   0  3  0  0  0  0           0  0  0
    6.4083   -5.8625    0.0000 O   0  0  0  0  0  0           0  0  0
    7.5167   -4.4333    0.0000 O   0  5  0  0  0  0           0  0  0
 11  7  1  0     0  0
  8  9  1  0     0  0
  6  1  1  0     0  0
  2  3  1  0     0  0
 12 13  2  0     0  0
  7  8  1  0     0  0
 13 14  1  0     0  0
 14 10  2  0     0  0
  3  4  2  0     0  0
  9 15  2  0     0  0
 15 12  1  0     0  0
  8 16  2  0     0  0
  4  5  1  0     0  0
  7 17  2  0     0  0
  2  1  2  0     0  0
 11 18  1  0     0  0
 18  3  1  0     0  0
  5  6  2  0     0  0
  2 19  1  0     0  0
  9 10  1  0     0  0
 19 20  2  0     0  0
 10 11  1  0     0  0
 19 21  1  0     0  0
M  CHG  2  19   1  21  -1
M  END
>  <prID>
666

>  <IDDB>
209019

>  <pIC50_HIV_Integrase>
3.22184875

>  <Q>
0.908417014

>  <Activity_Integrase>
Inactive_Integrase

NA
NA
NA
NA
$$$$

  Accelrys05311914292D 1   1.00000     0.00000     0

 19 21  0     0  0            999 V2000
    4.9916   -5.0411    0.0000 C   0  0  0  0  0  0           0  0  0
    5.7035   -4.6283    0.0000 C   0  0  0  0  0  0           0  0  0
    5.7165   -3.8116    0.0000 C   0  0  0  0  0  0           0  0  0
    5.0054   -3.3886    0.0000 C   0  0  0  0  0  0           0  0  0
    4.2857   -3.7929    0.0000 C   0  0  0  0  0  0           0  0  0
    4.2758   -4.6200    0.0000 C   0  0  0  0  0  0           0  0  0
    7.1536   -2.1729    0.0000 C   0  0  0  0  0  0           0  0  0
    7.1560   -1.3479    0.0000 C   0  0  0  0  0  0           0  0  0
    5.7320   -1.3437    0.0000 C   0  0  0  0  0  0           0  0  0
    5.7295   -2.1687    0.0000 C   0  0  0  0  0  0           0  0  0
    6.4445   -2.5875    0.0000 N   0  0  3  0  0  0           0  0  0
    4.3069   -1.3458    0.0000 C   0  0  0  0  0  0           0  0  0
    4.3057   -2.1732    0.0000 C   0  0  0  0  0  0           0  0  0
    5.0206   -2.5860    0.0000 C   0  0  0  0  0  0           0  0  0
    5.0188   -0.9330    0.0000 C   0  0  0  0  0  0           0  0  0
    7.8667   -0.9292    0.0000 O   0  0  0  0  0  0           0  0  0
    7.8625   -2.5833    0.0000 O   0  0  0  0  0  0           0  0  0
    6.4375   -3.4125    0.0000 C   0  0  0  0  0  0           0  0  0
    6.4125   -5.0375    0.0000 Cl  0  0  0  0  0  0           0  0  0
  9 10  1  0     0  0
 10 11  1  0     0  0
 11  7  1  0     0  0
  8  9  1  0     0  0
  6  1  1  0     0  0
  2  3  1  0     0  0
 12 13  2  0     0  0
  7  8  1  0     0  0
 13 14  1  0     0  0
 14 10  2  0     0  0
  3  4  2  0     0  0
  9 15  2  0     0  0
 15 12  1  0     0  0
  8 16  2  0     0  0
  4  5  1  0     0  0
  7 17  2  0     0  0
  2  1  2  0     0  0
 11 18  1  0     0  0
 18  3  1  0     0  0
  5  6  2  0     0  0
  2 19  1  0     0  0
M  END
>  <prID>
667

>  <IDDB>
209020

>  <pIC50_HIV_Integrase>
3.22184875

>  <Q>
0.153421546

>  <Activity_Integrase>
Inactive_Integrase

NA
NA
NA
NA
$$$$

  Accelrys05311914292D 1   1.00000     0.00000     0

 27 30  0     0  0            999 V2000
   10.0473   -6.2685    0.0000 C   0  0  0  0  0  0           0  0  0
   10.7564   -5.8423    0.0000 C   0  0  0  0  0  0           0  0  0
   10.7409   -5.0170    0.0000 C   0  0  0  0  0  0           0  0  0
   10.0170   -4.6169    0.0000 C   0  0  0  0  0  0           0  0  0
    9.3072   -5.0482    0.0000 C   0  0  0  0  0  0           0  0  0
    9.3262   -5.8721    0.0000 C   0  0  0  0  0  0           0  0  0
    8.5788   -3.8098    0.0000 C   0  0  0  0  0  0           0  0  0
    7.8577   -3.4133    0.0000 C   0  0  0  0  0  0           0  0  0
    7.1516   -3.8239    0.0000 C   0  0  0  0  0  0           0  0  0
    7.1565   -4.6513    0.0000 C   0  0  0  0  0  0           0  0  0
    7.8743   -5.0589    0.0000 C   0  0  0  0  0  0           0  0  0
    8.5877   -4.6403    0.0000 C   0  0  0  0  0  0           0  0  0
    7.1536   -2.1729    0.0000 C   0  0  0  0  0  0           0  0  0
    7.1560   -1.3479    0.0000 C   0  0  0  0  0  0           0  0  0
    5.7320   -1.3437    0.0000 C   0  0  0  0  0  0           0  0  0
    5.7295   -2.1687    0.0000 C   0  0  0  0  0  0           0  0  0
    6.4445   -2.5875    0.0000 N   0  0  3  0  0  0           0  0  0
    4.3069   -1.3458    0.0000 C   0  0  0  0  0  0           0  0  0
    4.3057   -2.1732    0.0000 C   0  0  0  0  0  0           0  0  0
    5.0206   -2.5860    0.0000 C   0  0  0  0  0  0           0  0  0
    5.0188   -0.9330    0.0000 C   0  0  0  0  0  0           0  0  0
    7.8667   -0.9292    0.0000 O   0  0  0  0  0  0           0  0  0
    7.8625   -2.5833    0.0000 O   0  0  0  0  0  0           0  0  0
    6.4375   -3.4125    0.0000 C   0  0  0  0  0  0           0  0  0
   10.0125   -3.7917    0.0000 C   0  0  0  0  0  0           0  0  0
    9.2958   -3.3792    0.0000 O   0  0  0  0  0  0           0  0  0
   10.7250   -3.3750    0.0000 O   0  0  0  0  0  0           0  0  0
  1  2  2  0     0  0
  3  4  2  0     0  0
  8  7  2  0     0  0
 15 16  1  0     0  0
 16 17  1  0     0  0
 17 13  1  0     0  0
 14 15  1  0     0  0
  4  5  1  0     0  0
  9 10  2  0     0  0
 18 19  2  0     0  0
  2  3  1  0     0  0
 19 20  1  0     0  0
 20 16  2  0     0  0
 10 11  1  0     0  0
 15 21  2  0     0  0
 21 18  1  0     0  0
  5  6  2  0     0  0
 14 22  2  0     0  0
 11 12  2  0     0  0
 13 23  2  0     0  0
 12  7  1  0     0  0
 17 24  1  0     0  0
 24  9  1  0     0  0
 12  5  1  0     0  0
  8  9  1  0     0  0
  4 25  1  0     0  0
 13 14  1  0     0  0
 25 26  2  0     0  0
  6  1  1  0     0  0
 25 27  1  0     0  0
M  END
>  <prID>
668

>  <IDDB>
209022

>  <pIC50_HIV_Integrase>
3.22184875

>  <Q>
0.813182488

>  <Activity_Integrase>
Inactive_Integrase

NA
NA
NA
NA
$$$$

  Accelrys05311914292D 1   1.00000     0.00000     0

 27 30  0     0  0            999 V2000
    9.9697   -4.1126    0.0000 C   0  0  0  0  0  0           0  0  0
    9.2370   -4.4969    0.0000 C   0  0  0  0  0  0           0  0  0
    9.2045   -5.3217    0.0000 C   0  0  0  0  0  0           0  0  0
    9.9039   -5.7633    0.0000 C   0  0  0  0  0  0           0  0  0
   10.6375   -5.3740    0.0000 C   0  0  0  0  0  0           0  0  0
   10.6664   -4.5504    0.0000 C   0  0  0  0  0  0           0  0  0
    7.8110   -4.4612    0.0000 C   0  0  0  0  0  0           0  0  0
    7.1042   -4.0373    0.0000 C   0  0  0  0  0  0           0  0  0
    7.1231   -3.2064    0.0000 C   0  0  0  0  0  0           0  0  0
    8.5358   -4.0627    0.0000 C   0  0  0  0  0  0           0  0  0
    8.5501   -3.2323    0.0000 C   0  0  0  0  0  0           0  0  0
    7.8434   -2.8085    0.0000 C   0  0  0  0  0  0           0  0  0
    6.4125   -2.7750    0.0000 C   0  0  0  0  0  0           0  0  0
    3.4920   -3.1812    0.0000 C   0  0  0  0  0  0           0  0  0
    4.2754   -3.4399    0.0000 S   0  0  0  0  0  0           0  0  0
    4.7651   -2.7758    0.0000 C   0  0  0  0  0  0           0  0  0
    4.2822   -2.1038    0.0000 N   0  0  0  0  0  0           0  0  0
    3.4981   -2.3575    0.0000 C   0  0  0  0  0  0           0  0  0
    2.0694   -2.3583    0.0000 C   0  0  0  0  0  0           0  0  0
    2.0682   -3.1857    0.0000 C   0  0  0  0  0  0           0  0  0
    2.7831   -3.5985    0.0000 C   0  0  0  0  0  0           0  0  0
    2.7813   -1.9455    0.0000 C   0  0  0  0  0  0           0  0  0
    5.5875   -2.7750    0.0000 S   0  0  3  0  0  0           0  0  0
    5.5833   -1.9500    0.0000 O   0  0  0  0  0  0           0  0  0
    5.5833   -3.6000    0.0000 O   0  0  0  0  0  0           0  0  0
   10.0034   -3.2820    0.0000 C   0  0  0  0  0  0           0  0  0
    9.9555   -2.4057    0.0000 N   0  0  0  0  0  0           0  0  0
 14 15  1  0     0  0
  1  2  2  0     0  0
  3  4  2  0     0  0
  7  8  1  0     0  0
  9  8  2  0     0  0
 15 16  1  0     0  0
 16 17  2  0     0  0
 17 18  1  0     0  0
 18 14  1  0     0  0
  4  5  1  0     0  0
  7 10  2  0     0  0
 19 20  2  0     0  0
  2  3  1  0     0  0
 20 21  1  0     0  0
 21 14  2  0     0  0
 10 11  1  0     0  0
 18 22  2  0     0  0
 22 19  1  0     0  0
  5  6  2  0     0  0
 16 23  1  0     0  0
 11 12  2  0     0  0
 23 24  2  0     0  0
 12  9  1  0     0  0
 23 25  2  0     0  0
 23 13  1  0     0  0
 10  2  1  0     0  0
  6  1  1  0     0  0
  1 26  1  0     0  0
  9 13  1  0     0  0
 26 27  3  0     0  0
M  END
>  <prID>
669

>  <IDDB>
209029

>  <pIC50_HIV_Integrase>
3.15490196

>  <Q>
2.257189402

>  <Activity_Integrase>
Inactive_Integrase

NA
NA
NA
NA
$$$$

  Accelrys05311914292D 1   1.00000     0.00000     0

 36 38  0     0  0            999 V2000
    0.1807   -3.9898    0.0000 O   0  0  0  0  0  0           0  0  0
    0.8932   -3.5773    0.0000 C   0  0  0  0  0  0           0  0  0
    1.6057   -3.9898    0.0000 C   0  0  0  0  0  0           0  0  0
    2.3182   -3.5773    0.0000 C   0  0  0  0  0  0           0  0  0
    3.0307   -3.9898    0.0000 C   0  0  0  0  0  0           0  0  0
    3.7432   -3.5773    0.0000 C   0  0  0  0  0  0           0  0  0
    3.0238   -4.8190    0.0000 O   0  0  0  0  0  0           0  0  0
    1.5988   -4.8190    0.0000 O   0  0  0  0  0  0           0  0  0
    0.8863   -2.7565    0.0000 O   0  0  0  0  0  0           0  0  0
   11.5912   -3.9810    0.0000 O   0  0  0  0  0  0           0  0  0
   10.8787   -3.5685    0.0000 C   0  0  0  0  0  0           0  0  0
   10.1662   -3.9810    0.0000 C   0  0  0  0  0  0           0  0  0
    9.4537   -3.5685    0.0000 C   0  0  0  0  0  0           0  0  0
    8.7412   -3.9810    0.0000 C   0  0  0  0  0  0           0  0  0
    8.0287   -3.5685    0.0000 C   0  0  0  0  0  0           0  0  0
    8.7481   -4.8101    0.0000 O   0  0  0  0  0  0           0  0  0
   10.1731   -4.8101    0.0000 O   0  0  0  0  0  0           0  0  0
   10.8856   -2.7476    0.0000 O   0  0  0  0  0  0           0  0  0
    5.1694   -5.2250    0.0000 C   0  0  0  0  0  0           0  0  0
    5.1682   -6.0523    0.0000 C   0  0  0  0  0  0           0  0  0
    5.8831   -6.4652    0.0000 C   0  0  0  0  0  0           0  0  0
    6.5995   -6.0519    0.0000 C   0  0  0  0  0  0           0  0  0
    6.5966   -5.2213    0.0000 C   0  0  0  0  0  0           0  0  0
    5.8813   -4.8122    0.0000 C   0  0  0  0  0  0           0  0  0
    6.5986   -2.7416    0.0000 C   0  0  0  0  0  0           0  0  0
    6.5974   -3.5690    0.0000 C   0  0  0  0  0  0           0  0  0
    7.3122   -3.9819    0.0000 C   0  0  0  0  0  0           0  0  0
    8.0258   -2.7380    0.0000 C   0  0  0  0  0  0           0  0  0
    7.3104   -2.3289    0.0000 C   0  0  0  0  0  0           0  0  0
    3.7444   -2.7500    0.0000 C   0  0  0  0  0  0           0  0  0
    4.4581   -3.9902    0.0000 C   0  0  0  0  0  0           0  0  0
    5.1745   -3.5769    0.0000 C   0  0  0  0  0  0           0  0  0
    5.1716   -2.7463    0.0000 C   0  0  0  0  0  0           0  0  0
    4.4563   -2.3372    0.0000 C   0  0  0  0  0  0           0  0  0
    5.8833   -3.9875    0.0000 C   0  0  3  0  0  0           0  0  0
    4.4500   -4.8083    0.0000 F   0  0  0  0  0  0           0  0  0
  2  3  1  0     0  0
 19 20  2  0     0  0
 10 11  1  0     0  0
 20 21  1  0     0  0
  5  6  1  0     0  0
 21 22  2  0     0  0
 11 12  1  0     0  0
 22 23  1  0     0  0
  1  2  1  0     0  0
 23 24  2  0     0  0
 24 19  1  0     0  0
 12 13  2  0     0  0
  5  7  2  0     0  0
 25 26  2  0     0  0
 13 14  1  0     0  0
 26 27  1  0     0  0
 27 15  2  0     0  0
  3  4  2  0     0  0
 15 28  1  0     0  0
 14 15  1  0     0  0
 28 29  2  0     0  0
 29 25  1  0     0  0
  3  8  1  0     0  0
 30  6  2  0     0  0
 14 16  2  0     0  0
  6 31  1  0     0  0
 31 32  2  0     0  0
 12 17  1  0     0  0
 32 33  1  0     0  0
  2  9  2  0     0  0
 33 34  2  0     0  0
 34 30  1  0     0  0
 11 18  2  0     0  0
 32 35  1  0     0  0
 35 26  1  0     0  0
 35 24  1  0     0  0
  4  5  1  0     0  0
 19 36  1  0     0  0
M  END
>  <prID>
670

>  <IDDB>
209880

>  <pIC50_HIV_Integrase>
6.698970004

>  <Q>
-3.52902736

>  <Activity_Integrase>
Active_Integrase

NA
NA
NA
NA
$$$$

  Accelrys05311914292D 1   1.00000     0.00000     0

 25 27  0     0  0            999 V2000
    7.2611   -2.0333    0.0000 C   0  0  0  0  0  0           0  0  0
    7.2599   -2.8607    0.0000 C   0  0  0  0  0  0           0  0  0
    7.9747   -3.2735    0.0000 C   0  0  0  0  0  0           0  0  0
    8.6912   -2.8602    0.0000 C   0  0  0  0  0  0           0  0  0
    8.6883   -2.0297    0.0000 C   0  0  0  0  0  0           0  0  0
    7.9729   -1.6205    0.0000 C   0  0  0  0  0  0           0  0  0
    5.8333   -2.0292    0.0000 C   0  0  3  0  0  0           0  0  0
    5.8333   -2.8542    0.0000 C   0  0  0  0  0  0           0  0  0
    6.5454   -1.6125    0.0000 C   0  0  0  0  0  0           0  0  0
    4.4083   -2.0292    0.0000 C   0  0  0  0  0  0           0  0  0
    4.4083   -2.8542    0.0000 C   0  0  0  0  0  0           0  0  0
    5.1204   -3.2625    0.0000 C   0  0  0  0  0  0           0  0  0
    5.1204   -1.6125    0.0000 C   0  0  0  0  0  0           0  0  0
    2.9875   -2.0292    0.0000 C   0  0  0  0  0  0           0  0  0
    2.9875   -2.8542    0.0000 C   0  0  0  0  0  0           0  0  0
    3.6995   -1.6125    0.0000 C   0  0  0  0  0  0           0  0  0
    1.5569   -2.0333    0.0000 C   0  0  0  0  0  0           0  0  0
    1.5557   -2.8607    0.0000 C   0  0  0  0  0  0           0  0  0
    2.2706   -3.2735    0.0000 C   0  0  0  0  0  0           0  0  0
    2.2688   -1.6205    0.0000 C   0  0  0  0  0  0           0  0  0
    0.8375   -1.6167    0.0000 O   0  0  0  0  0  0           0  0  0
    0.8375   -3.2667    0.0000 O   0  0  0  0  0  0           0  0  0
    5.1125   -0.7875    0.0000 O   0  0  0  0  0  0           0  0  0
    9.4000   -1.6125    0.0000 O   0  0  0  0  0  0           0  0  0
    9.4000   -3.2708    0.0000 O   0  0  0  0  0  0           0  0  0
 11 12  1  0     0  0
 12  8  1  0     0  0
  7 13  1  0     0  0
 14 15  1  0     0  0
  7  8  1  0     0  0
  1  2  2  0     0  0
  3  4  2  0     0  0
 14 16  1  0     0  0
 10 16  2  0     0  0
  7  9  1  0     0  0
 17 18  2  0     0  0
  1  9  1  0     0  0
 18 19  1  0     0  0
 19 15  2  0     0  0
 10 11  1  0     0  0
 14 20  2  0     0  0
 20 17  1  0     0  0
  4  5  1  0     0  0
 17 21  1  0     0  0
  2  3  1  0     0  0
 18 22  1  0     0  0
  5  6  2  0     0  0
 13 23  2  0     0  0
  6  1  1  0     0  0
  5 24  1  0     0  0
 10 13  1  0     0  0
  4 25  1  0     0  0
M  END
>  <prID>
671

>  <IDDB>
210507

>  <pIC50_HIV_Integrase>
6.301029996

>  <Q>
-2.949814074

>  <Activity_Integrase>
Active_Integrase

NA
NA
NA
NA
$$$$

  Accelrys05311914292D 1   1.00000     0.00000     0

 30 32  0     0  0            999 V2000
    7.8819   -3.9875    0.0000 C   0  0  0  0  0  0           0  0  0
    7.8807   -4.8148    0.0000 C   0  0  0  0  0  0           0  0  0
    8.5956   -5.2277    0.0000 C   0  0  0  0  0  0           0  0  0
    9.3120   -4.8144    0.0000 C   0  0  0  0  0  0           0  0  0
    9.3091   -3.9838    0.0000 C   0  0  0  0  0  0           0  0  0
    8.5938   -3.5747    0.0000 C   0  0  0  0  0  0           0  0  0
    6.4542   -3.9833    0.0000 C   0  0  3  0  0  0           0  0  0
    6.4542   -4.8083    0.0000 C   0  0  0  0  0  0           0  0  0
    7.1662   -3.5667    0.0000 C   0  0  0  0  0  0           0  0  0
    5.0292   -3.9833    0.0000 C   0  0  0  0  0  0           0  0  0
    5.0292   -4.8083    0.0000 C   0  0  0  0  0  0           0  0  0
    5.7412   -5.2167    0.0000 C   0  0  3  0  0  0           0  0  0
    5.7412   -3.5667    0.0000 C   0  0  0  0  0  0           0  0  0
    3.6083   -3.9833    0.0000 C   0  0  0  0  0  0           0  0  0
    3.6083   -4.8083    0.0000 C   0  0  0  0  0  0           0  0  0
    4.3204   -3.5667    0.0000 C   0  0  0  0  0  0           0  0  0
    2.1777   -3.9875    0.0000 C   0  0  0  0  0  0           0  0  0
    2.1766   -4.8148    0.0000 C   0  0  0  0  0  0           0  0  0
    2.8914   -5.2277    0.0000 C   0  0  0  0  0  0           0  0  0
    2.8896   -3.5747    0.0000 C   0  0  0  0  0  0           0  0  0
    1.4583   -3.5708    0.0000 O   0  0  0  0  0  0           0  0  0
    1.4583   -5.2208    0.0000 O   0  0  0  0  0  0           0  0  0
    5.7333   -2.7417    0.0000 O   0  0  0  0  0  0           0  0  0
   10.0208   -3.5667    0.0000 O   0  0  0  0  0  0           0  0  0
   10.0208   -5.2250    0.0000 O   0  0  0  0  0  0           0  0  0
    2.8833   -6.0500    0.0000 O   0  0  0  0  0  0           0  0  0
    5.7333   -6.0417    0.0000 C   0  0  0  0  0  0           0  0  0
    5.0167   -6.4500    0.0000 O   0  0  0  0  0  0           0  0  0
    6.4458   -6.4542    0.0000 O   0  0  0  0  0  0           0  0  0
    8.5875   -6.0500    0.0000 O   0  0  0  0  0  0           0  0  0
  1  2  2  0     0  0
  3  4  2  0     0  0
 14 16  1  0     0  0
 10 16  2  0     0  0
  7  9  1  0     0  0
 17 18  2  0     0  0
  1  9  1  0     0  0
 18 19  1  0     0  0
 19 15  2  0     0  0
 10 11  1  0     0  0
 14 20  2  0     0  0
 20 17  1  0     0  0
  4  5  1  0     0  0
 17 21  1  0     0  0
  2  3  1  0     0  0
 18 22  1  0     0  0
  5  6  2  0     0  0
 13 23  2  0     0  0
  6  1  1  0     0  0
  5 24  1  0     0  0
 10 13  1  0     0  0
  4 25  1  0     0  0
 11 12  1  0     0  0
 19 26  1  0     0  0
 12  8  1  0     0  0
 12 27  1  0     0  0
  7 13  1  0     0  0
 27 28  2  0     0  0
 14 15  1  0     0  0
 27 29  1  0     0  0
  7  8  1  0     0  0
  3 30  1  0     0  0
M  END
>  <prID>
672

>  <IDDB>
210508

>  <pIC50_HIV_Integrase>
5.74074303

>  <Q>
-5.421884399

>  <Activity_Integrase>
Inactive_Integrase

NA
NA
NA
NA
$$$$

  Accelrys05311914292D 1   1.00000     0.00000     0

 21 23  0     0  0            999 V2000
    2.1872   -3.7078    0.0000 C   0  0  0  0  0  0           0  0  0
    2.9038   -3.2953    0.0000 C   0  0  0  0  0  0           0  0  0
    3.6205   -3.7078    0.0000 C   0  0  0  0  0  0           0  0  0
    4.3372   -3.2953    0.0000 C   0  0  0  0  0  0           0  0  0
    5.0538   -3.7078    0.0000 C   0  0  0  0  0  0           0  0  0
    5.7705   -3.2953    0.0000 C   0  0  2  0  0  0           0  0  0
    6.5584   -3.0333    0.0000 C   0  0  0  0  0  0           0  0  0
    6.5573   -2.2040    0.0000 C   0  0  0  0  0  0           0  0  0
    5.7653   -1.9508    0.0000 C   0  0  0  0  0  0           0  0  0
    5.2814   -2.6251    0.0000 O   0  0  0  0  0  0           0  0  0
    7.2745   -3.4459    0.0000 C   0  0  2  0  0  0           0  0  0
    7.9865   -3.0333    0.0000 C   0  0  1  0  0  0           0  0  0
    7.9865   -2.2041    0.0000 C   0  0  1  0  0  0           0  0  0
    7.2745   -1.7875    0.0000 C   0  0  2  0  0  0           0  0  0
    5.5458   -1.1459    0.0000 O   0  0  0  0  0  0           0  0  0
    7.2666   -0.9584    0.0000 O   0  0  0  0  0  0           0  0  0
    7.2666   -4.2750    0.0000 O   0  0  0  0  0  0           0  0  0
    8.7000   -2.6208    0.0000 O   0  0  0  0  0  0           0  0  0
    1.4667   -3.2917    0.0000 C   0  0  0  0  0  0           0  0  0
    8.5667   -1.6125    0.0000 H   0  0  0  0  0  0           0  0  0
    8.5667   -3.6125    0.0000 H   0  0  0  0  0  0           0  0  0
 10  6  1  0     0  0
  2  3  1  0     0  0
  6  5  1  1     0  0
  6  7  1  0     0  0
  1  2  1  0     0  0
  8 14  1  0     0  0
  7 11  1  0     0  0
 11 12  1  0     0  0
 12 13  1  0     0  0
 13 14  1  0     0  0
  3  4  1  0     0  0
  9 15  2  0     0  0
 14 16  1  1     0  0
  4  5  1  0     0  0
 11 17  1  6     0  0
  7  8  2  0     0  0
 13 18  1  0     0  0
 12 18  1  0     0  0
  8  9  1  0     0  0
  1 19  1  0     0  0
 13 20  1  6     0  0
  9 10  1  0     0  0
 12 21  1  6     0  0
M  END
>  <prID>
673

>  <IDDB>
210601

>  <pIC50_HIV_Integrase>
4.387216143

>  <Q>
-4.884483543

>  <Activity_Integrase>
Inactive_Integrase

NA
NA
NA
NA
$$$$

  Accelrys05311914302D 1   1.00000     0.00000     0

 22 24  0     0  0            999 V2000
    5.3111   -1.2958    0.0000 C   0  0  0  0  0  0           0  0  0
    5.3099   -2.1232    0.0000 C   0  0  0  0  0  0           0  0  0
    6.0247   -2.5360    0.0000 C   0  0  0  0  0  0           0  0  0
    6.7412   -2.1227    0.0000 C   0  0  0  0  0  0           0  0  0
    6.7383   -1.2922    0.0000 C   0  0  0  0  0  0           0  0  0
    6.0229   -0.8830    0.0000 C   0  0  0  0  0  0           0  0  0
    1.0277   -1.3125    0.0000 C   0  0  0  0  0  0           0  0  0
    1.0266   -2.1398    0.0000 C   0  0  0  0  0  0           0  0  0
    1.7414   -2.5527    0.0000 C   0  0  0  0  0  0           0  0  0
    1.7396   -0.8997    0.0000 C   0  0  0  0  0  0           0  0  0
    2.4550   -1.3088    0.0000 C   0  0  0  0  0  0           0  0  0
    2.4578   -2.1394    0.0000 C   0  0  0  0  0  0           0  0  0
    3.1760   -2.5480    0.0000 S   0  0  3  0  0  0           0  0  0
    3.8914   -2.1344    0.0000 N   0  0  0  0  0  0           0  0  0
    3.8885   -1.3039    0.0000 C   0  0  0  0  0  0           0  0  0
    3.1703   -0.8869    0.0000 S   0  0  0  0  0  0           0  0  0
    0.3083   -0.8958    0.0000 Cl  0  0  0  0  0  0           0  0  0
    4.6000   -0.8833    0.0000 C   0  0  0  0  0  0           0  0  0
    4.5958   -0.0583    0.0000 O   0  0  0  0  0  0           0  0  0
    2.5875   -3.1292    0.0000 O   0  0  0  0  0  0           0  0  0
    3.8875   -2.9583    0.0000 O   0  0  0  0  0  0           0  0  0
    0.3083   -2.5458    0.0000 C   0  0  0  0  0  0           0  0  0
 11 12  1  0     0  0
  2  3  1  0     0  0
  5  6  2  0     0  0
  6  1  1  0     0  0
  1  2  2  0     0  0
  3  4  2  0     0  0
  7  8  2  0     0  0
 11 16  1  0     0  0
 12 13  1  0     0  0
 13 14  1  0     0  0
 14 15  2  0     0  0
 15 16  1  0     0  0
  7 17  1  0     0  0
  8  9  1  0     0  0
 15 18  1  0     0  0
 18  1  1  0     0  0
  9 12  2  0     0  0
 18 19  2  0     0  0
  4  5  1  0     0  0
 13 20  2  0     0  0
 11 10  2  0     0  0
 13 21  2  0     0  0
 10  7  1  0     0  0
  8 22  1  0     0  0
M  END
>  <prID>
674

>  <IDDB>
211927

>  <pIC50_HIV_Integrase>
4.920818754

>  <Q>
0.238329368

>  <Activity_Integrase>
Inactive_Integrase

NA
NA
NA
NA
$$$$

  Accelrys05311914292D 1   1.00000     0.00000     0

 24 26  0     0  0            999 V2000
    7.6527   -3.1416    0.0000 C   0  0  0  0  0  0           0  0  0
    7.6516   -3.9690    0.0000 C   0  0  0  0  0  0           0  0  0
    8.3664   -4.3819    0.0000 C   0  0  0  0  0  0           0  0  0
    9.0828   -3.9685    0.0000 C   0  0  0  0  0  0           0  0  0
    9.0800   -3.1380    0.0000 C   0  0  0  0  0  0           0  0  0
    8.3646   -2.7289    0.0000 C   0  0  0  0  0  0           0  0  0
    3.3694   -3.1583    0.0000 C   0  0  0  0  0  0           0  0  0
    3.3682   -3.9857    0.0000 C   0  0  0  0  0  0           0  0  0
    4.0831   -4.3985    0.0000 C   0  0  0  0  0  0           0  0  0
    4.0813   -2.7455    0.0000 C   0  0  0  0  0  0           0  0  0
    4.7966   -3.1547    0.0000 C   0  0  0  0  0  0           0  0  0
    4.7995   -3.9852    0.0000 C   0  0  0  0  0  0           0  0  0
    5.5177   -4.3938    0.0000 S   0  0  3  0  0  0           0  0  0
    6.2331   -3.9803    0.0000 N   0  0  0  0  0  0           0  0  0
    6.2302   -3.1497    0.0000 C   0  0  0  0  0  0           0  0  0
    5.5120   -2.7327    0.0000 S   0  0  0  0  0  0           0  0  0
    2.6500   -2.7417    0.0000 Cl  0  0  0  0  0  0           0  0  0
    6.9417   -2.7292    0.0000 C   0  0  0  0  0  0           0  0  0
    6.9375   -1.9042    0.0000 O   0  0  0  0  0  0           0  0  0
    4.9292   -4.9750    0.0000 O   0  0  0  0  0  0           0  0  0
    6.2292   -4.8042    0.0000 O   0  0  0  0  0  0           0  0  0
    2.6500   -4.3917    0.0000 C   0  0  0  0  0  0           0  0  0
    9.7917   -4.3792    0.0000 O   0  0  0  0  0  0           0  0  0
   10.5042   -3.9625    0.0000 C   0  0  0  0  0  0           0  0  0
  5  6  2  0     0  0
  6  1  1  0     0  0
  1  2  2  0     0  0
  3  4  2  0     0  0
  7  8  2  0     0  0
 11 16  1  0     0  0
 12 13  1  0     0  0
 13 14  1  0     0  0
 14 15  2  0     0  0
 15 16  1  0     0  0
  7 17  1  0     0  0
  8  9  1  0     0  0
 15 18  1  0     0  0
 18  1  1  0     0  0
  9 12  2  0     0  0
 18 19  2  0     0  0
  4  5  1  0     0  0
 13 20  2  0     0  0
 11 10  2  0     0  0
 13 21  2  0     0  0
 10  7  1  0     0  0
  8 22  1  0     0  0
 11 12  1  0     0  0
  4 23  1  0     0  0
  2  3  1  0     0  0
 23 24  1  0     0  0
M  END
>  <prID>
675

>  <IDDB>
211931

>  <pIC50_HIV_Integrase>
4.48148606

>  <Q>
-0.01951736

>  <Activity_Integrase>
Inactive_Integrase

NA
NA
NA
NA
$$$$

  Accelrys05311914292D 1   1.00000     0.00000     0

 23 25  0     0  0            999 V2000
    7.6527   -3.1416    0.0000 C   0  0  0  0  0  0           0  0  0
    7.6516   -3.9690    0.0000 C   0  0  0  0  0  0           0  0  0
    8.3664   -4.3819    0.0000 C   0  0  0  0  0  0           0  0  0
    9.0828   -3.9685    0.0000 C   0  0  0  0  0  0           0  0  0
    9.0800   -3.1380    0.0000 C   0  0  0  0  0  0           0  0  0
    8.3646   -2.7289    0.0000 C   0  0  0  0  0  0           0  0  0
    3.3694   -3.1583    0.0000 C   0  0  0  0  0  0           0  0  0
    3.3682   -3.9857    0.0000 C   0  0  0  0  0  0           0  0  0
    4.0831   -4.3985    0.0000 C   0  0  0  0  0  0           0  0  0
    4.0813   -2.7455    0.0000 C   0  0  0  0  0  0           0  0  0
    4.7966   -3.1547    0.0000 C   0  0  0  0  0  0           0  0  0
    4.7995   -3.9852    0.0000 C   0  0  0  0  0  0           0  0  0
    5.5177   -4.3938    0.0000 S   0  0  3  0  0  0           0  0  0
    6.2331   -3.9803    0.0000 N   0  0  0  0  0  0           0  0  0
    6.2302   -3.1497    0.0000 C   0  0  0  0  0  0           0  0  0
    5.5120   -2.7327    0.0000 S   0  0  0  0  0  0           0  0  0
    2.6500   -2.7417    0.0000 Cl  0  0  0  0  0  0           0  0  0
    6.9417   -2.7292    0.0000 C   0  0  0  0  0  0           0  0  0
    6.9375   -1.9042    0.0000 O   0  0  0  0  0  0           0  0  0
    4.9292   -4.9750    0.0000 O   0  0  0  0  0  0           0  0  0
    6.2292   -4.8042    0.0000 O   0  0  0  0  0  0           0  0  0
    2.6500   -4.3917    0.0000 C   0  0  0  0  0  0           0  0  0
    9.7917   -4.3792    0.0000 Br  0  0  0  0  0  0           0  0  0
  2  3  1  0     0  0
  5  6  2  0     0  0
  6  1  1  0     0  0
  1  2  2  0     0  0
  3  4  2  0     0  0
  7  8  2  0     0  0
 11 16  1  0     0  0
 12 13  1  0     0  0
 13 14  1  0     0  0
 14 15  2  0     0  0
 15 16  1  0     0  0
  7 17  1  0     0  0
  8  9  1  0     0  0
 15 18  1  0     0  0
 18  1  1  0     0  0
  9 12  2  0     0  0
 18 19  2  0     0  0
  4  5  1  0     0  0
 13 20  2  0     0  0
 11 10  2  0     0  0
 13 21  2  0     0  0
 10  7  1  0     0  0
  8 22  1  0     0  0
 11 12  1  0     0  0
  4 23  1  0     0  0
M  END
>  <prID>
676

>  <IDDB>
211932

>  <pIC50_HIV_Integrase>
4.522878745

>  <Q>
0.210016189

>  <Activity_Integrase>
Inactive_Integrase

NA
NA
NA
NA
$$$$

  Accelrys05311914302D 1   1.00000     0.00000     0

 23 25  0     0  0            999 V2000
    7.6527   -3.1416    0.0000 C   0  0  0  0  0  0           0  0  0
    7.6516   -3.9690    0.0000 C   0  0  0  0  0  0           0  0  0
    8.3664   -4.3819    0.0000 C   0  0  0  0  0  0           0  0  0
    9.0828   -3.9685    0.0000 C   0  0  0  0  0  0           0  0  0
    9.0800   -3.1380    0.0000 C   0  0  0  0  0  0           0  0  0
    8.3646   -2.7289    0.0000 C   0  0  0  0  0  0           0  0  0
    3.3694   -3.1583    0.0000 C   0  0  0  0  0  0           0  0  0
    3.3682   -3.9857    0.0000 C   0  0  0  0  0  0           0  0  0
    4.0831   -4.3985    0.0000 C   0  0  0  0  0  0           0  0  0
    4.0813   -2.7455    0.0000 C   0  0  0  0  0  0           0  0  0
    4.7966   -3.1547    0.0000 C   0  0  0  0  0  0           0  0  0
    4.7995   -3.9852    0.0000 C   0  0  0  0  0  0           0  0  0
    5.5177   -4.3938    0.0000 S   0  0  3  0  0  0           0  0  0
    6.2331   -3.9803    0.0000 N   0  0  0  0  0  0           0  0  0
    6.2302   -3.1497    0.0000 C   0  0  0  0  0  0           0  0  0
    5.5120   -2.7327    0.0000 S   0  0  0  0  0  0           0  0  0
    2.6500   -2.7417    0.0000 Cl  0  0  0  0  0  0           0  0  0
    6.9417   -2.7292    0.0000 C   0  0  0  0  0  0           0  0  0
    6.9375   -1.9042    0.0000 O   0  0  0  0  0  0           0  0  0
    4.9292   -4.9750    0.0000 O   0  0  0  0  0  0           0  0  0
    6.2292   -4.8042    0.0000 O   0  0  0  0  0  0           0  0  0
    2.6500   -4.3917    0.0000 C   0  0  0  0  0  0           0  0  0
    9.7917   -4.3792    0.0000 Cl  0  0  0  0  0  0           0  0  0
  2  3  1  0     0  0
  5  6  2  0     0  0
  6  1  1  0     0  0
  1  2  2  0     0  0
  3  4  2  0     0  0
  7  8  2  0     0  0
 11 16  1  0     0  0
 12 13  1  0     0  0
 13 14  1  0     0  0
 14 15  2  0     0  0
 15 16  1  0     0  0
  7 17  1  0     0  0
  8  9  1  0     0  0
 15 18  1  0     0  0
 18  1  1  0     0  0
  9 12  2  0     0  0
 18 19  2  0     0  0
  4  5  1  0     0  0
 13 20  2  0     0  0
 11 10  2  0     0  0
 13 21  2  0     0  0
 10  7  1  0     0  0
  8 22  1  0     0  0
 11 12  1  0     0  0
  4 23  1  0     0  0
M  END
>  <prID>
677

>  <IDDB>
211933

>  <pIC50_HIV_Integrase>
4.187086643

>  <Q>
-0.709803075

>  <Activity_Integrase>
Inactive_Integrase

NA
NA
NA
NA
$$$$

  Accelrys05311914292D 1   1.00000     0.00000     0

 23 25  0     0  0            999 V2000
    7.6527   -3.1416    0.0000 C   0  0  0  0  0  0           0  0  0
    7.6516   -3.9690    0.0000 C   0  0  0  0  0  0           0  0  0
    8.3664   -4.3819    0.0000 C   0  0  0  0  0  0           0  0  0
    9.0828   -3.9685    0.0000 C   0  0  0  0  0  0           0  0  0
    9.0800   -3.1380    0.0000 C   0  0  0  0  0  0           0  0  0
    8.3646   -2.7289    0.0000 C   0  0  0  0  0  0           0  0  0
    3.3694   -3.1583    0.0000 C   0  0  0  0  0  0           0  0  0
    3.3682   -3.9857    0.0000 C   0  0  0  0  0  0           0  0  0
    4.0831   -4.3985    0.0000 C   0  0  0  0  0  0           0  0  0
    4.0813   -2.7455    0.0000 C   0  0  0  0  0  0           0  0  0
    4.7966   -3.1547    0.0000 C   0  0  0  0  0  0           0  0  0
    4.7995   -3.9852    0.0000 C   0  0  0  0  0  0           0  0  0
    5.5177   -4.3938    0.0000 S   0  0  3  0  0  0           0  0  0
    6.2331   -3.9803    0.0000 N   0  0  0  0  0  0           0  0  0
    6.2302   -3.1497    0.0000 C   0  0  0  0  0  0           0  0  0
    5.5120   -2.7327    0.0000 S   0  0  0  0  0  0           0  0  0
    2.6500   -2.7417    0.0000 Cl  0  0  0  0  0  0           0  0  0
    6.9417   -2.7292    0.0000 C   0  0  0  0  0  0           0  0  0
    6.9375   -1.9042    0.0000 O   0  0  0  0  0  0           0  0  0
    4.9292   -4.9750    0.0000 O   0  0  0  0  0  0           0  0  0
    6.2292   -4.8042    0.0000 O   0  0  0  0  0  0           0  0  0
    2.6500   -4.3917    0.0000 C   0  0  0  0  0  0           0  0  0
    9.7917   -4.3792    0.0000 F   0  0  0  0  0  0           0  0  0
  2  3  1  0     0  0
  5  6  2  0     0  0
  6  1  1  0     0  0
  1  2  2  0     0  0
  3  4  2  0     0  0
  7  8  2  0     0  0
 11 16  1  0     0  0
 12 13  1  0     0  0
 13 14  1  0     0  0
 14 15  2  0     0  0
 15 16  1  0     0  0
  7 17  1  0     0  0
  8  9  1  0     0  0
 15 18  1  0     0  0
 18  1  1  0     0  0
  9 12  2  0     0  0
 18 19  2  0     0  0
  4  5  1  0     0  0
 13 20  2  0     0  0
 11 10  2  0     0  0
 13 21  2  0     0  0
 10  7  1  0     0  0
  8 22  1  0     0  0
 11 12  1  0     0  0
  4 23  1  0     0  0
M  END
>  <prID>
678

>  <IDDB>
211934

>  <pIC50_HIV_Integrase>
4.37675071

>  <Q>
-2.252783041

>  <Activity_Integrase>
Inactive_Integrase

NA
NA
NA
NA
$$$$

  Accelrys05311914292D 1   1.00000     0.00000     0

 25 27  0     0  0            999 V2000
    9.7836   -2.7105    0.0000 N   0  3  0  0  0  0           0  0  0
   10.5056   -3.1098    0.0000 O   0  0  0  0  0  0           0  0  0
    9.7691   -1.7799    0.0000 O   0  5  0  0  0  0           0  0  0
    9.0800   -3.1380    0.0000 C   0  0  0  0  0  0           0  0  0
    7.6527   -3.1416    0.0000 C   0  0  0  0  0  0           0  0  0
    7.6516   -3.9690    0.0000 C   0  0  0  0  0  0           0  0  0
    8.3664   -4.3819    0.0000 C   0  0  0  0  0  0           0  0  0
    9.0828   -3.9685    0.0000 C   0  0  0  0  0  0           0  0  0
    8.3646   -2.7289    0.0000 C   0  0  0  0  0  0           0  0  0
    3.3694   -3.1583    0.0000 C   0  0  0  0  0  0           0  0  0
    3.3682   -3.9857    0.0000 C   0  0  0  0  0  0           0  0  0
    4.0831   -4.3985    0.0000 C   0  0  0  0  0  0           0  0  0
    4.0813   -2.7455    0.0000 C   0  0  0  0  0  0           0  0  0
    4.7966   -3.1547    0.0000 C   0  0  0  0  0  0           0  0  0
    4.7995   -3.9852    0.0000 C   0  0  0  0  0  0           0  0  0
    5.5177   -4.3938    0.0000 S   0  0  3  0  0  0           0  0  0
    6.2331   -3.9803    0.0000 N   0  0  0  0  0  0           0  0  0
    6.2302   -3.1497    0.0000 C   0  0  0  0  0  0           0  0  0
    5.5120   -2.7327    0.0000 S   0  0  0  0  0  0           0  0  0
    2.6500   -2.7417    0.0000 Cl  0  0  0  0  0  0           0  0  0
    6.9417   -2.7292    0.0000 C   0  0  0  0  0  0           0  0  0
    6.9375   -1.9042    0.0000 O   0  0  0  0  0  0           0  0  0
    4.9292   -4.9750    0.0000 O   0  0  0  0  0  0           0  0  0
    6.2292   -4.8042    0.0000 O   0  0  0  0  0  0           0  0  0
    2.6500   -4.3917    0.0000 C   0  0  0  0  0  0           0  0  0
  6  7  1  0     0  0
 14 13  2  0     0  0
 13 10  1  0     0  0
 14 15  1  0     0  0
  7  8  2  0     0  0
  8  4  1  0     0  0
  1  2  2  0     0  0
  4  9  2  0     0  0
  9  5  1  0     0  0
 14 19  1  0     0  0
 15 16  1  0     0  0
 16 17  1  0     0  0
 17 18  2  0     0  0
 18 19  1  0     0  0
  4  1  1  0     0  0
 10 20  1  0     0  0
  5  6  2  0     0  0
 18 21  1  0     0  0
 21  5  1  0     0  0
 10 11  2  0     0  0
 21 22  2  0     0  0
  1  3  1  0     0  0
 16 23  2  0     0  0
 11 12  1  0     0  0
 16 24  2  0     0  0
 12 15  2  0     0  0
 11 25  1  0     0  0
M  CHG  2   1   1   3  -1
M  END
>  <prID>
679

>  <IDDB>
211936

>  <pIC50_HIV_Integrase>
4.301029996

>  <Q>
0.047594952

>  <Activity_Integrase>
Inactive_Integrase

NA
NA
NA
NA
$$$$

  Accelrys05311914292D 1   1.00000     0.00000     0

 24 26  0     0  0            999 V2000
    9.8586   -2.7480    0.0000 Cl  0  0  0  0  0  0           0  0  0
    9.0800   -3.1380    0.0000 C   0  0  0  0  0  0           0  0  0
    7.6527   -3.1416    0.0000 C   0  0  0  0  0  0           0  0  0
    7.6516   -3.9690    0.0000 C   0  0  0  0  0  0           0  0  0
    8.3664   -4.3819    0.0000 C   0  0  0  0  0  0           0  0  0
    9.0828   -3.9685    0.0000 C   0  0  0  0  0  0           0  0  0
    8.3646   -2.7289    0.0000 C   0  0  0  0  0  0           0  0  0
    3.3694   -3.1583    0.0000 C   0  0  0  0  0  0           0  0  0
    3.3682   -3.9857    0.0000 C   0  0  0  0  0  0           0  0  0
    4.0831   -4.3985    0.0000 C   0  0  0  0  0  0           0  0  0
    4.0813   -2.7455    0.0000 C   0  0  0  0  0  0           0  0  0
    4.7966   -3.1547    0.0000 C   0  0  0  0  0  0           0  0  0
    4.7995   -3.9852    0.0000 C   0  0  0  0  0  0           0  0  0
    5.5177   -4.3938    0.0000 S   0  0  3  0  0  0           0  0  0
    6.2331   -3.9803    0.0000 N   0  0  0  0  0  0           0  0  0
    6.2302   -3.1497    0.0000 C   0  0  0  0  0  0           0  0  0
    5.5120   -2.7327    0.0000 S   0  0  0  0  0  0           0  0  0
    2.6500   -2.7417    0.0000 Cl  0  0  0  0  0  0           0  0  0
    6.9417   -2.7292    0.0000 C   0  0  0  0  0  0           0  0  0
    6.9375   -1.9042    0.0000 O   0  0  0  0  0  0           0  0  0
    4.9292   -4.9750    0.0000 O   0  0  0  0  0  0           0  0  0
    6.2292   -4.8042    0.0000 O   0  0  0  0  0  0           0  0  0
    2.6500   -4.3917    0.0000 C   0  0  0  0  0  0           0  0  0
    9.7917   -4.3792    0.0000 Cl  0  0  0  0  0  0           0  0  0
 12 13  1  0     0  0
  6  2  1  0     0  0
  3  4  2  0     0  0
  2  7  2  0     0  0
  7  3  1  0     0  0
  2  1  1  0     0  0
  4  5  1  0     0  0
 12 17  1  0     0  0
 13 14  1  0     0  0
 14 15  1  0     0  0
 15 16  2  0     0  0
 16 17  1  0     0  0
  8  9  2  0     0  0
  8 18  1  0     0  0
 16 19  1  0     0  0
 19  3  1  0     0  0
  9 10  1  0     0  0
 19 20  2  0     0  0
 10 13  2  0     0  0
 14 21  2  0     0  0
  5  6  2  0     0  0
 14 22  2  0     0  0
 12 11  2  0     0  0
  9 23  1  0     0  0
 11  8  1  0     0  0
  6 24  1  0     0  0
M  END
>  <prID>
680

>  <IDDB>
211937

>  <pIC50_HIV_Integrase>
5.15490196

>  <Q>
-1.596806198

>  <Activity_Integrase>
Inactive_Integrase

NA
NA
NA
NA
$$$$

  Accelrys05311914292D 1   1.00000     0.00000     0

 28 31  0     0  0            999 V2000
    9.7917   -4.3792    0.0000 C   0  0  0  0  0  0           0  0  0
    9.7905   -5.2065    0.0000 C   0  0  0  0  0  0           0  0  0
   10.5053   -5.6194    0.0000 C   0  0  0  0  0  0           0  0  0
   11.2218   -5.2061    0.0000 C   0  0  0  0  0  0           0  0  0
   11.2189   -4.3755    0.0000 C   0  0  0  0  0  0           0  0  0
   10.5035   -3.9664    0.0000 C   0  0  0  0  0  0           0  0  0
    9.0800   -3.1380    0.0000 C   0  0  0  0  0  0           0  0  0
    7.6527   -3.1416    0.0000 C   0  0  0  0  0  0           0  0  0
    7.6516   -3.9690    0.0000 C   0  0  0  0  0  0           0  0  0
    8.3664   -4.3819    0.0000 C   0  0  0  0  0  0           0  0  0
    9.0828   -3.9685    0.0000 C   0  0  0  0  0  0           0  0  0
    8.3646   -2.7289    0.0000 C   0  0  0  0  0  0           0  0  0
    3.3694   -3.1583    0.0000 C   0  0  0  0  0  0           0  0  0
    3.3682   -3.9857    0.0000 C   0  0  0  0  0  0           0  0  0
    4.0831   -4.3985    0.0000 C   0  0  0  0  0  0           0  0  0
    4.0813   -2.7455    0.0000 C   0  0  0  0  0  0           0  0  0
    4.7966   -3.1547    0.0000 C   0  0  0  0  0  0           0  0  0
    4.7995   -3.9852    0.0000 C   0  0  0  0  0  0           0  0  0
    5.5177   -4.3938    0.0000 S   0  0  3  0  0  0           0  0  0
    6.2331   -3.9803    0.0000 N   0  0  0  0  0  0           0  0  0
    6.2302   -3.1497    0.0000 C   0  0  0  0  0  0           0  0  0
    5.5120   -2.7327    0.0000 S   0  0  0  0  0  0           0  0  0
    2.6500   -2.7417    0.0000 Cl  0  0  0  0  0  0           0  0  0
    6.9417   -2.7292    0.0000 C   0  0  0  0  0  0           0  0  0
    6.9375   -1.9042    0.0000 O   0  0  0  0  0  0           0  0  0
    4.9292   -4.9750    0.0000 O   0  0  0  0  0  0           0  0  0
    6.2292   -4.8042    0.0000 O   0  0  0  0  0  0           0  0  0
    2.6500   -4.3917    0.0000 C   0  0  0  0  0  0           0  0  0
  3  4  2  0     0  0
 14 15  1  0     0  0
 15 18  2  0     0  0
 17 16  2  0     0  0
 16 13  1  0     0  0
 17 18  1  0     0  0
  8  9  2  0     0  0
  4  5  1  0     0  0
  9 10  1  0     0  0
  2  3  1  0     0  0
 10 11  2  0     0  0
 11  7  1  0     0  0
 17 22  1  0     0  0
 18 19  1  0     0  0
 19 20  1  0     0  0
 20 21  2  0     0  0
 21 22  1  0     0  0
  5  6  2  0     0  0
 13 23  1  0     0  0
  7 12  2  0     0  0
 21 24  1  0     0  0
 24  8  1  0     0  0
 12  8  1  0     0  0
 24 25  2  0     0  0
  6  1  1  0     0  0
 19 26  2  0     0  0
  1  2  2  0     0  0
 19 27  2  0     0  0
 13 14  2  0     0  0
 14 28  1  0     0  0
 11  1  1  0     0  0
M  END
>  <prID>
681

>  <IDDB>
211938

>  <pIC50_HIV_Integrase>
5

>  <Q>
0.911684139

>  <Activity_Integrase>
Inactive_Integrase

NA
NA
NA
NA
$$$$

  Accelrys05311914302D 1   1.00000     0.00000     0

 26 29  0     0  0            999 V2000
    6.3667   -1.8958    0.0000 C   0  0  0  0  0  0           0  0  0
    6.3655   -2.7232    0.0000 C   0  0  0  0  0  0           0  0  0
    7.0803   -3.1361    0.0000 C   0  0  0  0  0  0           0  0  0
    7.7968   -2.7227    0.0000 C   0  0  0  0  0  0           0  0  0
    7.7939   -1.8922    0.0000 C   0  0  0  0  0  0           0  0  0
    7.0785   -1.4831    0.0000 C   0  0  0  0  0  0           0  0  0
    4.9361   -1.8958    0.0000 C   0  0  0  0  0  0           0  0  0
    4.9349   -2.7232    0.0000 C   0  0  0  0  0  0           0  0  0
    5.6497   -3.1360    0.0000 C   0  0  0  0  0  0           0  0  0
    5.6479   -1.4830    0.0000 C   0  0  0  0  0  0           0  0  0
    0.6527   -1.9125    0.0000 C   0  0  0  0  0  0           0  0  0
    0.6516   -2.7398    0.0000 C   0  0  0  0  0  0           0  0  0
    1.3664   -3.1527    0.0000 C   0  0  0  0  0  0           0  0  0
    1.3646   -1.4997    0.0000 C   0  0  0  0  0  0           0  0  0
    2.0800   -1.9088    0.0000 C   0  0  0  0  0  0           0  0  0
    2.0828   -2.7394    0.0000 C   0  0  0  0  0  0           0  0  0
    2.8010   -3.1480    0.0000 S   0  0  3  0  0  0           0  0  0
    3.5164   -2.7344    0.0000 N   0  0  0  0  0  0           0  0  0
    3.5135   -1.9039    0.0000 C   0  0  0  0  0  0           0  0  0
    2.7953   -1.4869    0.0000 S   0  0  0  0  0  0           0  0  0
   -0.0667   -1.4958    0.0000 Cl  0  0  0  0  0  0           0  0  0
    4.2250   -1.4833    0.0000 C   0  0  0  0  0  0           0  0  0
    4.2208   -0.6583    0.0000 O   0  0  0  0  0  0           0  0  0
    2.2125   -3.7292    0.0000 O   0  0  0  0  0  0           0  0  0
    3.5125   -3.5583    0.0000 O   0  0  0  0  0  0           0  0  0
   -0.0667   -3.1458    0.0000 C   0  0  0  0  0  0           0  0  0
 12 13  1  0     0  0
 13 16  2  0     0  0
  1  2  2  0     0  0
 15 14  2  0     0  0
 14 11  1  0     0  0
 15 16  1  0     0  0
  3  4  2  0     0  0
  7  8  1  0     0  0
  8  9  2  0     0  0
  9  2  1  0     0  0
  4  5  1  0     0  0
 15 20  1  0     0  0
 16 17  1  0     0  0
 17 18  1  0     0  0
 18 19  2  0     0  0
 19 20  1  0     0  0
  1 10  1  0     0  0
 11 21  1  0     0  0
 10  7  2  0     0  0
 19 22  1  0     0  0
 22  7  1  0     0  0
  2  3  1  0     0  0
 22 23  2  0     0  0
  5  6  2  0     0  0
 17 24  2  0     0  0
 11 12  2  0     0  0
 17 25  2  0     0  0
  6  1  1  0     0  0
 12 26  1  0     0  0
M  END
>  <prID>
682

>  <IDDB>
211939

>  <pIC50_HIV_Integrase>
5.522878745

>  <Q>
0.631954882

>  <Activity_Integrase>
Inactive_Integrase

NA
NA
NA
NA
$$$$

  Accelrys05311914292D 1   1.00000     0.00000     0

 23 25  0     0  0            999 V2000
    6.3667   -1.8958    0.0000 C   0  0  0  0  0  0           0  0  0
    6.3655   -2.7232    0.0000 C   0  0  0  0  0  0           0  0  0
    7.0803   -3.1361    0.0000 Cl  0  0  0  0  0  0           0  0  0
    4.9361   -1.8958    0.0000 C   0  0  0  0  0  0           0  0  0
    4.9349   -2.7232    0.0000 C   0  0  0  0  0  0           0  0  0
    5.6497   -3.1360    0.0000 C   0  0  0  0  0  0           0  0  0
    5.6479   -1.4830    0.0000 C   0  0  0  0  0  0           0  0  0
    0.6527   -1.9125    0.0000 C   0  0  0  0  0  0           0  0  0
    0.6516   -2.7398    0.0000 C   0  0  0  0  0  0           0  0  0
    1.3664   -3.1527    0.0000 C   0  0  0  0  0  0           0  0  0
    1.3646   -1.4997    0.0000 C   0  0  0  0  0  0           0  0  0
    2.0800   -1.9088    0.0000 C   0  0  0  0  0  0           0  0  0
    2.0828   -2.7394    0.0000 C   0  0  0  0  0  0           0  0  0
    2.8010   -3.1480    0.0000 S   0  0  3  0  0  0           0  0  0
    3.5164   -2.7344    0.0000 N   0  0  0  0  0  0           0  0  0
    3.5135   -1.9039    0.0000 C   0  0  0  0  0  0           0  0  0
    2.7953   -1.4869    0.0000 S   0  0  0  0  0  0           0  0  0
   -0.0667   -1.4958    0.0000 Cl  0  0  0  0  0  0           0  0  0
    4.2250   -1.4833    0.0000 C   0  0  0  0  0  0           0  0  0
    4.2208   -0.6583    0.0000 O   0  0  0  0  0  0           0  0  0
    2.2125   -3.7292    0.0000 O   0  0  0  0  0  0           0  0  0
    3.5125   -3.5583    0.0000 O   0  0  0  0  0  0           0  0  0
    1.3583   -3.9750    0.0000 C   0  0  0  0  0  0           0  0  0
 11  8  1  0     0  0
 12 13  1  0     0  0
  6  2  1  0     0  0
  1  2  2  0     0  0
  1  7  1  0     0  0
  7  4  2  0     0  0
  4  5  1  0     0  0
 12 17  1  0     0  0
 13 14  1  0     0  0
 14 15  1  0     0  0
 15 16  2  0     0  0
 16 17  1  0     0  0
  8  9  2  0     0  0
  8 18  1  0     0  0
  2  3  1  0     0  0
 16 19  1  0     0  0
 19  4  1  0     0  0
  9 10  1  0     0  0
 19 20  2  0     0  0
 10 13  2  0     0  0
 14 21  2  0     0  0
  5  6  2  0     0  0
 14 22  2  0     0  0
 12 11  2  0     0  0
 10 23  1  0     0  0
M  END
>  <prID>
683

>  <IDDB>
211940

>  <pIC50_HIV_Integrase>
4.602059991

>  <Q>
-0.770678148

>  <Activity_Integrase>
Inactive_Integrase

NA
NA
NA
NA
$$$$

  Accelrys05311914292D 1   1.00000     0.00000     0

 24 26  0     0  0            999 V2000
    6.3667   -1.8958    0.0000 C   0  0  0  0  0  0           0  0  0
    6.3655   -2.7232    0.0000 C   0  0  0  0  0  0           0  0  0
    7.0803   -3.1361    0.0000 Cl  0  0  0  0  0  0           0  0  0
    4.9361   -1.8958    0.0000 C   0  0  0  0  0  0           0  0  0
    4.9349   -2.7232    0.0000 C   0  0  0  0  0  0           0  0  0
    5.6497   -3.1360    0.0000 C   0  0  0  0  0  0           0  0  0
    5.6479   -1.4830    0.0000 C   0  0  0  0  0  0           0  0  0
    0.6527   -1.9125    0.0000 C   0  0  0  0  0  0           0  0  0
    0.6516   -2.7398    0.0000 C   0  0  0  0  0  0           0  0  0
    1.3664   -3.1527    0.0000 C   0  0  0  0  0  0           0  0  0
    1.3646   -1.4997    0.0000 C   0  0  0  0  0  0           0  0  0
    2.0800   -1.9088    0.0000 C   0  0  0  0  0  0           0  0  0
    2.0828   -2.7394    0.0000 C   0  0  0  0  0  0           0  0  0
    2.8010   -3.1480    0.0000 S   0  0  3  0  0  0           0  0  0
    3.5164   -2.7344    0.0000 N   0  0  0  0  0  0           0  0  0
    3.5135   -1.9039    0.0000 C   0  0  0  0  0  0           0  0  0
    2.7953   -1.4869    0.0000 S   0  0  0  0  0  0           0  0  0
   -0.0667   -1.4958    0.0000 Cl  0  0  0  0  0  0           0  0  0
    4.2250   -1.4833    0.0000 C   0  0  0  0  0  0           0  0  0
    4.2208   -0.6583    0.0000 O   0  0  0  0  0  0           0  0  0
    2.2125   -3.7292    0.0000 O   0  0  0  0  0  0           0  0  0
    3.5125   -3.5583    0.0000 O   0  0  0  0  0  0           0  0  0
    1.3583   -3.9750    0.0000 C   0  0  0  0  0  0           0  0  0
    7.0792   -1.4792    0.0000 Cl  0  0  0  0  0  0           0  0  0
 12 13  1  0     0  0
  6  2  1  0     0  0
  1  2  2  0     0  0
  1  7  1  0     0  0
  7  4  2  0     0  0
  4  5  1  0     0  0
 12 17  1  0     0  0
 13 14  1  0     0  0
 14 15  1  0     0  0
 15 16  2  0     0  0
 16 17  1  0     0  0
  8  9  2  0     0  0
  8 18  1  0     0  0
  2  3  1  0     0  0
 16 19  1  0     0  0
 19  4  1  0     0  0
  9 10  1  0     0  0
 19 20  2  0     0  0
 10 13  2  0     0  0
 14 21  2  0     0  0
  5  6  2  0     0  0
 14 22  2  0     0  0
 12 11  2  0     0  0
 10 23  1  0     0  0
 11  8  1  0     0  0
  1 24  1  0     0  0
M  END
>  <prID>
684

>  <IDDB>
211941

>  <pIC50_HIV_Integrase>
4.602059991

>  <Q>
-1.657681271

>  <Activity_Integrase>
Inactive_Integrase

NA
NA
NA
NA
$$$$

  Accelrys05311914292D 1   1.00000     0.00000     0

 26 29  0     0  0            999 V2000
    6.3652   -1.9000    0.0000 C   0  0  0  0  0  0           0  0  0
    6.3641   -2.7273    0.0000 C   0  0  0  0  0  0           0  0  0
    7.0789   -3.1402    0.0000 C   0  0  0  0  0  0           0  0  0
    7.7953   -2.7269    0.0000 C   0  0  0  0  0  0           0  0  0
    7.7925   -1.8963    0.0000 C   0  0  0  0  0  0           0  0  0
    7.0771   -1.4872    0.0000 C   0  0  0  0  0  0           0  0  0
    4.9361   -1.8958    0.0000 C   0  0  0  0  0  0           0  0  0
    4.9349   -2.7232    0.0000 C   0  0  0  0  0  0           0  0  0
    5.6497   -3.1360    0.0000 C   0  0  0  0  0  0           0  0  0
    5.6479   -1.4830    0.0000 C   0  0  0  0  0  0           0  0  0
    0.6527   -1.9125    0.0000 C   0  0  0  0  0  0           0  0  0
    0.6516   -2.7398    0.0000 C   0  0  0  0  0  0           0  0  0
    1.3664   -3.1527    0.0000 C   0  0  0  0  0  0           0  0  0
    1.3646   -1.4997    0.0000 C   0  0  0  0  0  0           0  0  0
    2.0800   -1.9088    0.0000 C   0  0  0  0  0  0           0  0  0
    2.0828   -2.7394    0.0000 C   0  0  0  0  0  0           0  0  0
    2.8010   -3.1480    0.0000 S   0  0  3  0  0  0           0  0  0
    3.5164   -2.7344    0.0000 N   0  0  0  0  0  0           0  0  0
    3.5135   -1.9039    0.0000 C   0  0  0  0  0  0           0  0  0
    2.7953   -1.4869    0.0000 S   0  0  0  0  0  0           0  0  0
   -0.0667   -1.4958    0.0000 Cl  0  0  0  0  0  0           0  0  0
    4.2250   -1.4833    0.0000 C   0  0  0  0  0  0           0  0  0
    4.2208   -0.6583    0.0000 O   0  0  0  0  0  0           0  0  0
    2.2125   -3.7292    0.0000 O   0  0  0  0  0  0           0  0  0
    3.5125   -3.5583    0.0000 O   0  0  0  0  0  0           0  0  0
    1.3583   -3.9750    0.0000 C   0  0  0  0  0  0           0  0  0
 12 13  1  0     0  0
 13 16  2  0     0  0
  1  2  2  0     0  0
 15 14  2  0     0  0
 14 11  1  0     0  0
 15 16  1  0     0  0
  3  4  2  0     0  0
  7  8  1  0     0  0
  8  9  2  0     0  0
  9  2  1  0     0  0
  4  5  1  0     0  0
 15 20  1  0     0  0
 16 17  1  0     0  0
 17 18  1  0     0  0
 18 19  2  0     0  0
 19 20  1  0     0  0
  1 10  1  0     0  0
 11 21  1  0     0  0
 10  7  2  0     0  0
 19 22  1  0     0  0
 22  7  1  0     0  0
  2  3  1  0     0  0
 22 23  2  0     0  0
  5  6  2  0     0  0
 17 24  2  0     0  0
 11 12  2  0     0  0
 17 25  2  0     0  0
  6  1  1  0     0  0
 13 26  1  0     0  0
M  END
>  <prID>
685

>  <IDDB>
211942

>  <pIC50_HIV_Integrase>
5.15490196

>  <Q>
0.57107981

>  <Activity_Integrase>
Inactive_Integrase

NA
NA
NA
NA
$$$$

  Accelrys05311914292D 1   1.00000     0.00000     0

 22 24  0     0  0            999 V2000
    8.6625   -3.0875    0.0000 C   0  0  0  0  0  0           0  0  0
    8.6613   -3.9149    0.0000 C   0  0  0  0  0  0           0  0  0
    9.3762   -4.3277    0.0000 Cl  0  0  0  0  0  0           0  0  0
    7.2319   -3.0875    0.0000 C   0  0  0  0  0  0           0  0  0
    7.2307   -3.9148    0.0000 C   0  0  0  0  0  0           0  0  0
    7.9456   -4.3277    0.0000 C   0  0  0  0  0  0           0  0  0
    7.9438   -2.6747    0.0000 C   0  0  0  0  0  0           0  0  0
    2.9486   -3.1041    0.0000 C   0  0  0  0  0  0           0  0  0
    2.9474   -3.9315    0.0000 C   0  0  0  0  0  0           0  0  0
    3.6622   -4.3444    0.0000 C   0  0  0  0  0  0           0  0  0
    3.6604   -2.6914    0.0000 C   0  0  0  0  0  0           0  0  0
    4.3758   -3.1005    0.0000 C   0  0  0  0  0  0           0  0  0
    4.3787   -3.9310    0.0000 C   0  0  0  0  0  0           0  0  0
    5.0969   -4.3396    0.0000 S   0  0  3  0  0  0           0  0  0
    5.8122   -3.9261    0.0000 N   0  0  0  0  0  0           0  0  0
    5.8094   -3.0956    0.0000 C   0  0  0  0  0  0           0  0  0
    5.0912   -2.6786    0.0000 S   0  0  0  0  0  0           0  0  0
    2.2292   -2.6875    0.0000 Cl  0  0  0  0  0  0           0  0  0
    6.5208   -2.6750    0.0000 C   0  0  0  0  0  0           0  0  0
    6.5167   -1.8500    0.0000 O   0  0  0  0  0  0           0  0  0
    4.5083   -4.9208    0.0000 O   0  0  0  0  0  0           0  0  0
    5.8083   -4.7500    0.0000 O   0  0  0  0  0  0           0  0  0
 12 11  2  0     0  0
 11  8  1  0     0  0
 12 13  1  0     0  0
  6  2  1  0     0  0
  1  2  2  0     0  0
  1  7  1  0     0  0
  7  4  2  0     0  0
  4  5  1  0     0  0
 12 17  1  0     0  0
 13 14  1  0     0  0
 14 15  1  0     0  0
 15 16  2  0     0  0
 16 17  1  0     0  0
  8  9  2  0     0  0
  8 18  1  0     0  0
  2  3  1  0     0  0
 16 19  1  0     0  0
 19  4  1  0     0  0
  9 10  1  0     0  0
 19 20  2  0     0  0
 10 13  2  0     0  0
 14 21  2  0     0  0
  5  6  2  0     0  0
 14 22  2  0     0  0
M  END
>  <prID>
686

>  <IDDB>
211943

>  <pIC50_HIV_Integrase>
4.045757491

>  <Q>
-0.537872071

>  <Activity_Integrase>
Inactive_Integrase

NA
NA
NA
NA
$$$$

  Accelrys05311914292D 1   1.00000     0.00000     0

 24 26  0     0  0            999 V2000
    8.6625   -3.0875    0.0000 C   0  0  0  0  0  0           0  0  0
    8.6613   -3.9149    0.0000 C   0  0  0  0  0  0           0  0  0
    7.2319   -3.0875    0.0000 C   0  0  0  0  0  0           0  0  0
    7.2307   -3.9148    0.0000 C   0  0  0  0  0  0           0  0  0
    7.9456   -4.3277    0.0000 C   0  0  0  0  0  0           0  0  0
    7.9438   -2.6747    0.0000 C   0  0  0  0  0  0           0  0  0
    2.9486   -3.1041    0.0000 C   0  0  0  0  0  0           0  0  0
    2.9474   -3.9315    0.0000 C   0  0  0  0  0  0           0  0  0
    3.6622   -4.3444    0.0000 C   0  0  0  0  0  0           0  0  0
    3.6604   -2.6914    0.0000 C   0  0  0  0  0  0           0  0  0
    4.3758   -3.1005    0.0000 C   0  0  0  0  0  0           0  0  0
    4.3787   -3.9310    0.0000 C   0  0  0  0  0  0           0  0  0
    5.0969   -4.3396    0.0000 S   0  0  3  0  0  0           0  0  0
    5.8122   -3.9261    0.0000 N   0  0  0  0  0  0           0  0  0
    5.8094   -3.0956    0.0000 C   0  0  0  0  0  0           0  0  0
    5.0912   -2.6786    0.0000 S   0  0  0  0  0  0           0  0  0
    2.2292   -2.6875    0.0000 Cl  0  0  0  0  0  0           0  0  0
    6.5208   -2.6750    0.0000 C   0  0  0  0  0  0           0  0  0
    6.5167   -1.8500    0.0000 O   0  0  0  0  0  0           0  0  0
    4.5083   -4.9208    0.0000 O   0  0  0  0  0  0           0  0  0
    5.8083   -4.7500    0.0000 O   0  0  0  0  0  0           0  0  0
    9.3750   -2.6708    0.0000 N   0  3  0  0  0  0           0  0  0
   10.0875   -3.0833    0.0000 O   0  0  0  0  0  0           0  0  0
    9.3708   -1.8458    0.0000 O   0  5  0  0  0  0           0  0  0
  1  6  1  0     0  0
  6  3  2  0     0  0
  3  4  1  0     0  0
  7  8  2  0     0  0
 11 16  1  0     0  0
 12 13  1  0     0  0
 13 14  1  0     0  0
 14 15  2  0     0  0
 15 16  1  0     0  0
  4  5  2  0     0  0
  7 17  1  0     0  0
  8  9  1  0     0  0
 15 18  1  0     0  0
 18  3  1  0     0  0
  9 12  2  0     0  0
 18 19  2  0     0  0
  5  2  1  0     0  0
 13 20  2  0     0  0
 11 10  2  0     0  0
 13 21  2  0     0  0
 10  7  1  0     0  0
  1 22  1  0     0  0
 11 12  1  0     0  0
 22 23  2  0     0  0
  1  2  2  0     0  0
 22 24  1  0     0  0
M  CHG  2  22   1  24  -1
M  END
>  <prID>
687

>  <IDDB>
211944

>  <pIC50_HIV_Integrase>
4.698970004

>  <Q>
0.219525956

>  <Activity_Integrase>
Inactive_Integrase

NA
NA
NA
NA
$$$$

  Accelrys05311914292D 1   1.00000     0.00000     0

 23 25  0     0  0            999 V2000
    8.6625   -3.0875    0.0000 C   0  0  0  0  0  0           0  0  0
    8.6613   -3.9149    0.0000 C   0  0  0  0  0  0           0  0  0
    7.2319   -3.0875    0.0000 C   0  0  0  0  0  0           0  0  0
    7.2307   -3.9148    0.0000 C   0  0  0  0  0  0           0  0  0
    7.9456   -4.3277    0.0000 C   0  0  0  0  0  0           0  0  0
    7.9438   -2.6747    0.0000 C   0  0  0  0  0  0           0  0  0
    2.9486   -3.1041    0.0000 C   0  0  0  0  0  0           0  0  0
    2.9474   -3.9315    0.0000 C   0  0  0  0  0  0           0  0  0
    3.6622   -4.3444    0.0000 C   0  0  0  0  0  0           0  0  0
    3.6604   -2.6914    0.0000 C   0  0  0  0  0  0           0  0  0
    4.3758   -3.1005    0.0000 C   0  0  0  0  0  0           0  0  0
    4.3787   -3.9310    0.0000 C   0  0  0  0  0  0           0  0  0
    5.0969   -4.3396    0.0000 S   0  0  3  0  0  0           0  0  0
    5.8122   -3.9261    0.0000 N   0  0  0  0  0  0           0  0  0
    5.8094   -3.0956    0.0000 C   0  0  0  0  0  0           0  0  0
    5.0912   -2.6786    0.0000 S   0  0  0  0  0  0           0  0  0
    2.2292   -2.6875    0.0000 Cl  0  0  0  0  0  0           0  0  0
    6.5208   -2.6750    0.0000 C   0  0  0  0  0  0           0  0  0
    6.5167   -1.8500    0.0000 O   0  0  0  0  0  0           0  0  0
    4.5083   -4.9208    0.0000 O   0  0  0  0  0  0           0  0  0
    5.8083   -4.7500    0.0000 O   0  0  0  0  0  0           0  0  0
    9.3750   -2.6708    0.0000 Cl  0  0  0  0  0  0           0  0  0
    9.3708   -4.3250    0.0000 Cl  0  0  0  0  0  0           0  0  0
  1  2  2  0     0  0
  1  6  1  0     0  0
  6  3  2  0     0  0
  3  4  1  0     0  0
  7  8  2  0     0  0
 11 16  1  0     0  0
 12 13  1  0     0  0
 13 14  1  0     0  0
 14 15  2  0     0  0
 15 16  1  0     0  0
  4  5  2  0     0  0
  7 17  1  0     0  0
  8  9  1  0     0  0
 15 18  1  0     0  0
 18  3  1  0     0  0
  9 12  2  0     0  0
 18 19  2  0     0  0
  5  2  1  0     0  0
 13 20  2  0     0  0
 11 10  2  0     0  0
 13 21  2  0     0  0
 10  7  1  0     0  0
  1 22  1  0     0  0
 11 12  1  0     0  0
  2 23  1  0     0  0
M  END
>  <prID>
688

>  <IDDB>
211945

>  <pIC50_HIV_Integrase>
4.721246399

>  <Q>
-1.424875194

>  <Activity_Integrase>
Inactive_Integrase

NA
NA
NA
NA
$$$$

  Accelrys05311914302D 1   1.00000     0.00000     0

 25 28  0     0  0            999 V2000
    8.6652   -3.0916    0.0000 C   0  0  0  0  0  0           0  0  0
    8.6641   -3.9190    0.0000 C   0  0  0  0  0  0           0  0  0
    9.3789   -4.3319    0.0000 C   0  0  0  0  0  0           0  0  0
   10.0953   -3.9185    0.0000 C   0  0  0  0  0  0           0  0  0
   10.0925   -3.0880    0.0000 C   0  0  0  0  0  0           0  0  0
    9.3771   -2.6789    0.0000 C   0  0  0  0  0  0           0  0  0
    7.2319   -3.0875    0.0000 C   0  0  0  0  0  0           0  0  0
    7.2307   -3.9148    0.0000 C   0  0  0  0  0  0           0  0  0
    7.9456   -4.3277    0.0000 C   0  0  0  0  0  0           0  0  0
    7.9438   -2.6747    0.0000 C   0  0  0  0  0  0           0  0  0
    2.9486   -3.1041    0.0000 C   0  0  0  0  0  0           0  0  0
    2.9474   -3.9315    0.0000 C   0  0  0  0  0  0           0  0  0
    3.6622   -4.3444    0.0000 C   0  0  0  0  0  0           0  0  0
    3.6604   -2.6914    0.0000 C   0  0  0  0  0  0           0  0  0
    4.3758   -3.1005    0.0000 C   0  0  0  0  0  0           0  0  0
    4.3787   -3.9310    0.0000 C   0  0  0  0  0  0           0  0  0
    5.0969   -4.3396    0.0000 S   0  0  3  0  0  0           0  0  0
    5.8122   -3.9261    0.0000 N   0  0  0  0  0  0           0  0  0
    5.8094   -3.0956    0.0000 C   0  0  0  0  0  0           0  0  0
    5.0912   -2.6786    0.0000 S   0  0  0  0  0  0           0  0  0
    2.2292   -2.6875    0.0000 Cl  0  0  0  0  0  0           0  0  0
    6.5208   -2.6750    0.0000 C   0  0  0  0  0  0           0  0  0
    6.5167   -1.8500    0.0000 O   0  0  0  0  0  0           0  0  0
    4.5083   -4.9208    0.0000 O   0  0  0  0  0  0           0  0  0
    5.8083   -4.7500    0.0000 O   0  0  0  0  0  0           0  0  0
  6  1  1  0     0  0
 12 13  1  0     0  0
 13 16  2  0     0  0
  1  2  2  0     0  0
 15 14  2  0     0  0
 14 11  1  0     0  0
 15 16  1  0     0  0
  3  4  2  0     0  0
  7  8  1  0     0  0
  8  9  2  0     0  0
  9  2  1  0     0  0
  4  5  1  0     0  0
 15 20  1  0     0  0
 16 17  1  0     0  0
 17 18  1  0     0  0
 18 19  2  0     0  0
 19 20  1  0     0  0
  1 10  1  0     0  0
 11 21  1  0     0  0
 10  7  2  0     0  0
 19 22  1  0     0  0
 22  7  1  0     0  0
  2  3  1  0     0  0
 22 23  2  0     0  0
  5  6  2  0     0  0
 17 24  2  0     0  0
 11 12  2  0     0  0
 17 25  2  0     0  0
M  END
>  <prID>
689

>  <IDDB>
211946

>  <pIC50_HIV_Integrase>
5.096910013

>  <Q>
0.803885885

>  <Activity_Integrase>
Inactive_Integrase

NA
NA
NA
NA
$$$$

  Accelrys05311914302D 1   1.00000     0.00000     0

 11 12  0     0  0            999 V2000
    3.2370   -1.5144    0.0000 C   0  0  0  0  0  0           0  0  0
    4.0301   -1.7416    0.0000 N   0  0  0  0  0  0           0  0  0
    4.4929   -1.0585    0.0000 C   0  0  0  0  0  0           0  0  0
    3.9836   -0.4062    0.0000 N   0  0  0  0  0  0           0  0  0
    3.2102   -0.6910    0.0000 C   0  0  0  0  0  0           0  0  0
    1.8069   -0.6875    0.0000 C   0  0  0  0  0  0           0  0  0
    1.8057   -1.5148    0.0000 C   0  0  0  0  0  0           0  0  0
    2.5206   -1.9277    0.0000 C   0  0  0  0  0  0           0  0  0
    2.5188   -0.2747    0.0000 C   0  0  0  0  0  0           0  0  0
    5.3167   -1.0583    0.0000 N   0  0  0  0  0  0           0  0  0
    1.0875   -1.9208    0.0000 N   0  0  0  0  0  0           0  0  0
  1  2  1  0     0  0
  6  7  2  0     0  0
  2  3  1  0     0  0
  7  8  1  0     0  0
  8  1  2  0     0  0
  3  4  2  0     0  0
  5  9  2  0     0  0
  9  6  1  0     0  0
  4  5  1  0     0  0
  3 10  1  0     0  0
  5  1  1  0     0  0
  7 11  1  0     0  0
M  END
>  <prID>
690

>  <IDDB>
214682

>  <pIC50_HIV_Integrase>
3.769551079

>  <Q>
-3.262320564

>  <Activity_Integrase>
Inactive_Integrase

NA
NA
NA
NA
$$$$

  Accelrys05311914302D 1   1.00000     0.00000     0

 18 20  0     0  0            999 V2000
    1.1402   -2.1458    0.0000 C   0  0  0  0  0  0           0  0  0
    1.1391   -2.9732    0.0000 C   0  0  0  0  0  0           0  0  0
    1.8539   -3.3860    0.0000 C   0  0  0  0  0  0           0  0  0
    2.5703   -2.9727    0.0000 C   0  0  0  0  0  0           0  0  0
    2.5675   -2.1422    0.0000 C   0  0  0  0  0  0           0  0  0
    1.8521   -1.7330    0.0000 C   0  0  0  0  0  0           0  0  0
    3.2792   -1.7250    0.0000 C   0  0  0  0  0  0           0  0  0
    3.9917   -2.1375    0.0000 N   0  0  0  0  0  0           0  0  0
    6.1412   -1.7310    0.0000 C   0  0  0  0  0  0           0  0  0
    6.9343   -1.9582    0.0000 N   0  0  0  0  0  0           0  0  0
    7.3971   -1.2752    0.0000 C   0  0  0  0  0  0           0  0  0
    6.8877   -0.6229    0.0000 N   0  0  0  0  0  0           0  0  0
    6.1144   -0.9077    0.0000 C   0  0  0  0  0  0           0  0  0
    4.7111   -0.9041    0.0000 C   0  0  0  0  0  0           0  0  0
    4.7099   -1.7315    0.0000 C   0  0  0  0  0  0           0  0  0
    5.4247   -2.1444    0.0000 C   0  0  0  0  0  0           0  0  0
    5.4229   -0.4914    0.0000 C   0  0  0  0  0  0           0  0  0
    8.2208   -1.2750    0.0000 N   0  0  0  0  0  0           0  0  0
  4  5  1  0     0  0
  2  3  1  0     0  0
  5  6  2  0     0  0
  6  1  1  0     0  0
 10 11  1  0     0  0
 11 12  2  0     0  0
 12 13  1  0     0  0
 13  9  1  0     0  0
  1  2  2  0     0  0
  5  7  1  0     0  0
 14 15  2  0     0  0
  3  4  2  0     0  0
 15 16  1  0     0  0
 16  9  2  0     0  0
  7  8  1  0     0  0
 13 17  2  0     0  0
 17 14  1  0     0  0
  9 10  1  0     0  0
 11 18  1  0     0  0
 15  8  1  0     0  0
M  END
>  <prID>
691

>  <IDDB>
214683

>  <pIC50_HIV_Integrase>
4.055517328

>  <Q>
-2.013926338

>  <Activity_Integrase>
Inactive_Integrase

NA
NA
NA
NA
$$$$

  Accelrys05311914302D 1   1.00000     0.00000     0

 25 28  0     0  0            999 V2000
    0.1186   -3.2661    0.0000 C   0  0  0  0  0  0           0  0  0
    0.1174   -4.0935    0.0000 C   0  0  0  0  0  0           0  0  0
    0.8322   -4.5064    0.0000 C   0  0  0  0  0  0           0  0  0
    1.5487   -4.0930    0.0000 C   0  0  0  0  0  0           0  0  0
    1.5458   -3.2625    0.0000 C   0  0  0  0  0  0           0  0  0
    0.8304   -2.8534    0.0000 C   0  0  0  0  0  0           0  0  0
    2.9819   -3.2708    0.0000 C   0  0  0  0  0  0           0  0  0
    2.9807   -4.0982    0.0000 C   0  0  0  0  0  0           0  0  0
    3.6956   -4.5110    0.0000 C   0  0  0  0  0  0           0  0  0
    4.4120   -4.0977    0.0000 C   0  0  0  0  0  0           0  0  0
    4.4091   -3.2672    0.0000 C   0  0  0  0  0  0           0  0  0
    3.6938   -2.8580    0.0000 C   0  0  0  0  0  0           0  0  0
    5.1208   -2.8500    0.0000 C   0  0  0  0  0  0           0  0  0
    5.8333   -3.2625    0.0000 N   0  0  0  0  0  0           0  0  0
    7.9828   -2.8560    0.0000 C   0  0  0  0  0  0           0  0  0
    8.7759   -3.0832    0.0000 N   0  0  0  0  0  0           0  0  0
    9.2388   -2.4002    0.0000 C   0  0  0  0  0  0           0  0  0
    8.7294   -1.7479    0.0000 N   0  0  0  0  0  0           0  0  0
    7.9560   -2.0327    0.0000 C   0  0  0  0  0  0           0  0  0
    6.5527   -2.0291    0.0000 C   0  0  0  0  0  0           0  0  0
    6.5516   -2.8565    0.0000 C   0  0  0  0  0  0           0  0  0
    7.2664   -3.2694    0.0000 C   0  0  0  0  0  0           0  0  0
    7.2646   -1.6164    0.0000 C   0  0  0  0  0  0           0  0  0
   10.0625   -2.4000    0.0000 N   0  0  0  0  0  0           0  0  0
    2.2625   -2.8542    0.0000 O   0  0  0  0  0  0           0  0  0
  6  1  1  0     0  0
 11 13  1  0     0  0
  1  2  2  0     0  0
 13 14  1  0     0  0
 15 16  1  0     0  0
  3  4  2  0     0  0
  7  8  2  0     0  0
  8  9  1  0     0  0
  4  5  1  0     0  0
 16 17  1  0     0  0
 17 18  2  0     0  0
 18 19  1  0     0  0
 19 15  1  0     0  0
  9 10  2  0     0  0
  2  3  1  0     0  0
 20 21  2  0     0  0
 10 11  1  0     0  0
 21 22  1  0     0  0
 22 15  2  0     0  0
  5  6  2  0     0  0
 19 23  2  0     0  0
 23 20  1  0     0  0
 11 12  2  0     0  0
 17 24  1  0     0  0
 21 14  1  0     0  0
 12  7  1  0     0  0
  7 25  1  0     0  0
 25  5  1  0     0  0
M  END
>  <prID>
692

>  <IDDB>
214684

>  <pIC50_HIV_Integrase>
4.031517051

>  <Q>
-1.802781735

>  <Activity_Integrase>
Inactive_Integrase

NA
NA
NA
NA
$$$$

  Accelrys05311914302D 1   1.00000     0.00000     0

 39 44  0     0  0            999 V2000
    6.5436   -4.4995    0.0000 C   0  0  0  0  0  0           0  0  0
    6.5424   -5.3268    0.0000 C   0  0  0  0  0  0           0  0  0
    7.2572   -5.7397    0.0000 C   0  0  0  0  0  0           0  0  0
    7.9737   -5.3264    0.0000 C   0  0  0  0  0  0           0  0  0
    7.9708   -4.4958    0.0000 C   0  0  0  0  0  0           0  0  0
    7.2554   -4.0867    0.0000 C   0  0  0  0  0  0           0  0  0
    9.4069   -4.5041    0.0000 C   0  0  0  0  0  0           0  0  0
    9.4057   -5.3315    0.0000 C   0  0  0  0  0  0           0  0  0
   10.1206   -5.7444    0.0000 C   0  0  0  0  0  0           0  0  0
   10.8370   -5.3310    0.0000 C   0  0  0  0  0  0           0  0  0
   10.1188   -4.0914    0.0000 C   0  0  0  0  0  0           0  0  0
    8.6875   -4.0875    0.0000 O   0  0  0  0  0  0           0  0  0
   10.8333   -4.5000    0.0000 C   0  0  0  0  0  0           0  0  0
    0.1186   -3.2661    0.0000 C   0  0  0  0  0  0           0  0  0
    0.1174   -4.0935    0.0000 C   0  0  0  0  0  0           0  0  0
    0.8322   -4.5064    0.0000 C   0  0  0  0  0  0           0  0  0
    1.5487   -4.0930    0.0000 C   0  0  0  0  0  0           0  0  0
    1.5458   -3.2625    0.0000 C   0  0  0  0  0  0           0  0  0
    0.8304   -2.8534    0.0000 C   0  0  0  0  0  0           0  0  0
    2.9819   -3.2708    0.0000 C   0  0  0  0  0  0           0  0  0
    2.9807   -4.0982    0.0000 C   0  0  0  0  0  0           0  0  0
    3.6956   -4.5110    0.0000 C   0  0  0  0  0  0           0  0  0
    4.4120   -4.0977    0.0000 C   0  0  0  0  0  0           0  0  0
    4.4091   -3.2672    0.0000 C   0  0  0  0  0  0           0  0  0
    3.6938   -2.8580    0.0000 C   0  0  0  0  0  0           0  0  0
    5.1208   -2.8500    0.0000 C   0  0  0  0  0  0           0  0  0
    5.8333   -3.2625    0.0000 N   0  0  3  0  0  0           0  0  0
    7.9828   -2.8560    0.0000 C   0  0  0  0  0  0           0  0  0
    8.7759   -3.0832    0.0000 N   0  0  0  0  0  0           0  0  0
    9.2388   -2.4002    0.0000 C   0  0  0  0  0  0           0  0  0
    8.7294   -1.7479    0.0000 N   0  0  0  0  0  0           0  0  0
    7.9560   -2.0327    0.0000 C   0  0  0  0  0  0           0  0  0
    6.5527   -2.0291    0.0000 C   0  0  0  0  0  0           0  0  0
    6.5516   -2.8565    0.0000 C   0  0  0  0  0  0           0  0  0
    7.2664   -3.2694    0.0000 C   0  0  0  0  0  0           0  0  0
    7.2646   -1.6164    0.0000 C   0  0  0  0  0  0           0  0  0
   10.0625   -2.4000    0.0000 N   0  0  0  0  0  0           0  0  0
    2.2625   -2.8542    0.0000 O   0  0  0  0  0  0           0  0  0
    5.8292   -4.0875    0.0000 C   0  0  0  0  0  0           0  0  0
 19 14  1  0     0  0
  9 10  2  0     0  0
 10 13  1  0     0  0
 20 21  2  0     0  0
  2  3  1  0     0  0
 21 22  1  0     0  0
 13 11  2  0     0  0
 22 23  2  0     0  0
 11  7  1  0     0  0
 23 24  1  0     0  0
  5  6  2  0     0  0
 24 25  2  0     0  0
 25 20  1  0     0  0
  7 12  1  0     0  0
 24 26  1  0     0  0
 12  5  1  0     0  0
 26 27  1  0     0  0
 28 29  1  0     0  0
  6  1  1  0     0  0
  1  2  2  0     0  0
  3  4  2  0     0  0
 14 15  2  0     0  0
  7  8  2  0     0  0
 29 30  1  0     0  0
 30 31  2  0     0  0
 31 32  1  0     0  0
 32 28  1  0     0  0
 15 16  1  0     0  0
 33 34  2  0     0  0
 16 17  2  0     0  0
 34 35  1  0     0  0
 35 28  2  0     0  0
  8  9  1  0     0  0
 32 36  2  0     0  0
 36 33  1  0     0  0
 17 18  1  0     0  0
 30 37  1  0     0  0
 34 27  1  0     0  0
  4  5  1  0     0  0
 20 38  1  0     0  0
 38 18  1  0     0  0
 18 19  2  0     0  0
 27 39  1  0     0  0
 39  1  1  0     0  0
M  END
>  <prID>
693

>  <IDDB>
214685

>  <pIC50_HIV_Integrase>
5.30980392

>  <Q>
-0.176038438

>  <Activity_Integrase>
Inactive_Integrase

NA
NA
NA
NA
$$$$

  Accelrys05311914302D 1   1.00000     0.00000     0

 29 32  0     0  0            999 V2000
    6.5436   -4.4995    0.0000 C   0  0  0  0  0  0           0  0  0
    6.5424   -5.3268    0.0000 C   0  0  0  0  0  0           0  0  0
    7.2572   -5.7397    0.0000 C   0  0  0  0  0  0           0  0  0
    7.9737   -5.3264    0.0000 C   0  0  0  0  0  0           0  0  0
    7.9708   -4.4958    0.0000 C   0  0  0  0  0  0           0  0  0
    7.2554   -4.0867    0.0000 C   0  0  0  0  0  0           0  0  0
    9.4069   -4.5041    0.0000 C   0  0  0  0  0  0           0  0  0
    8.6875   -4.0875    0.0000 O   0  0  0  0  0  0           0  0  0
    1.5458   -3.2625    0.0000 C   0  0  0  0  0  0           0  0  0
    2.9819   -3.2708    0.0000 C   0  0  0  0  0  0           0  0  0
    2.9807   -4.0982    0.0000 C   0  0  0  0  0  0           0  0  0
    3.6956   -4.5110    0.0000 C   0  0  0  0  0  0           0  0  0
    4.4120   -4.0977    0.0000 C   0  0  0  0  0  0           0  0  0
    4.4091   -3.2672    0.0000 C   0  0  0  0  0  0           0  0  0
    3.6938   -2.8580    0.0000 C   0  0  0  0  0  0           0  0  0
    5.1208   -2.8500    0.0000 C   0  0  0  0  0  0           0  0  0
    5.8333   -3.2625    0.0000 N   0  0  3  0  0  0           0  0  0
    7.9828   -2.8560    0.0000 C   0  0  0  0  0  0           0  0  0
    8.7759   -3.0832    0.0000 N   0  0  0  0  0  0           0  0  0
    9.2388   -2.4002    0.0000 C   0  0  0  0  0  0           0  0  0
    8.7294   -1.7479    0.0000 N   0  0  0  0  0  0           0  0  0
    7.9560   -2.0327    0.0000 C   0  0  0  0  0  0           0  0  0
    6.5527   -2.0291    0.0000 C   0  0  0  0  0  0           0  0  0
    6.5516   -2.8565    0.0000 C   0  0  0  0  0  0           0  0  0
    7.2664   -3.2694    0.0000 C   0  0  0  0  0  0           0  0  0
    7.2646   -1.6164    0.0000 C   0  0  0  0  0  0           0  0  0
   10.0625   -2.4000    0.0000 N   0  0  0  0  0  0           0  0  0
    2.2625   -2.8542    0.0000 O   0  0  0  0  0  0           0  0  0
    5.8292   -4.0875    0.0000 C   0  0  0  0  0  0           0  0  0
 15 10  1  0     0  0
  7  8  1  0     0  0
 14 16  1  0     0  0
  8  5  1  0     0  0
 16 17  1  0     0  0
 18 19  1  0     0  0
  4  5  1  0     0  0
  2  3  1  0     0  0
 10 11  2  0     0  0
  5  6  2  0     0  0
 19 20  1  0     0  0
 20 21  2  0     0  0
 21 22  1  0     0  0
 22 18  1  0     0  0
 11 12  1  0     0  0
  6  1  1  0     0  0
 23 24  2  0     0  0
 12 13  2  0     0  0
 24 25  1  0     0  0
 25 18  2  0     0  0
  1  2  2  0     0  0
 22 26  2  0     0  0
 26 23  1  0     0  0
 13 14  1  0     0  0
 20 27  1  0     0  0
 24 17  1  0     0  0
  3  4  2  0     0  0
 10 28  1  0     0  0
 28  9  1  0     0  0
 14 15  2  0     0  0
 17 29  1  0     0  0
 29  1  1  0     0  0
M  END
>  <prID>
694

>  <IDDB>
214686

>  <pIC50_HIV_Integrase>
5.744727495

>  <Q>
-1.11199167

>  <Activity_Integrase>
Inactive_Integrase

NA
NA
NA
NA
$$$$

  Accelrys05311914302D 1   1.00000     0.00000     0

 27 30  0     0  0            999 V2000
    6.5436   -4.4995    0.0000 C   0  0  0  0  0  0           0  0  0
    6.5424   -5.3268    0.0000 C   0  0  0  0  0  0           0  0  0
    7.2572   -5.7397    0.0000 C   0  0  0  0  0  0           0  0  0
    7.9737   -5.3264    0.0000 C   0  0  0  0  0  0           0  0  0
    7.9708   -4.4958    0.0000 C   0  0  0  0  0  0           0  0  0
    7.2554   -4.0867    0.0000 C   0  0  0  0  0  0           0  0  0
    2.9819   -3.2708    0.0000 C   0  0  0  0  0  0           0  0  0
    2.9807   -4.0982    0.0000 C   0  0  0  0  0  0           0  0  0
    3.6956   -4.5110    0.0000 C   0  0  0  0  0  0           0  0  0
    4.4120   -4.0977    0.0000 C   0  0  0  0  0  0           0  0  0
    4.4091   -3.2672    0.0000 C   0  0  0  0  0  0           0  0  0
    3.6938   -2.8580    0.0000 C   0  0  0  0  0  0           0  0  0
    5.1208   -2.8500    0.0000 C   0  0  0  0  0  0           0  0  0
    5.8333   -3.2625    0.0000 N   0  0  3  0  0  0           0  0  0
    7.9828   -2.8560    0.0000 C   0  0  0  0  0  0           0  0  0
    8.7759   -3.0832    0.0000 N   0  0  0  0  0  0           0  0  0
    9.2388   -2.4002    0.0000 C   0  0  0  0  0  0           0  0  0
    8.7294   -1.7479    0.0000 N   0  0  0  0  0  0           0  0  0
    7.9560   -2.0327    0.0000 C   0  0  0  0  0  0           0  0  0
    6.5527   -2.0291    0.0000 C   0  0  0  0  0  0           0  0  0
    6.5516   -2.8565    0.0000 C   0  0  0  0  0  0           0  0  0
    7.2664   -3.2694    0.0000 C   0  0  0  0  0  0           0  0  0
    7.2646   -1.6164    0.0000 C   0  0  0  0  0  0           0  0  0
   10.0625   -2.4000    0.0000 N   0  0  0  0  0  0           0  0  0
    5.8292   -4.0875    0.0000 C   0  0  0  0  0  0           0  0  0
    3.6875   -2.0292    0.0000 C   0  0  0  0  0  0           0  0  0
    5.8250   -5.7333    0.0000 C   0  0  0  0  0  0           0  0  0
  1  2  2  0     0  0
 13 14  1  0     0  0
 15 16  1  0     0  0
  3  4  2  0     0  0
  7  8  2  0     0  0
  8  9  1  0     0  0
  4  5  1  0     0  0
 16 17  1  0     0  0
 17 18  2  0     0  0
 18 19  1  0     0  0
 19 15  1  0     0  0
  9 10  2  0     0  0
  2  3  1  0     0  0
 20 21  2  0     0  0
 10 11  1  0     0  0
 21 22  1  0     0  0
 22 15  2  0     0  0
  5  6  2  0     0  0
 19 23  2  0     0  0
 23 20  1  0     0  0
 11 12  2  0     0  0
 17 24  1  0     0  0
 21 14  1  0     0  0
 12  7  1  0     0  0
 14 25  1  0     0  0
 25  1  1  0     0  0
  6  1  1  0     0  0
 12 26  1  0     0  0
 11 13  1  0     0  0
  2 27  1  0     0  0
M  END
>  <prID>
695

>  <IDDB>
214687

>  <pIC50_HIV_Integrase>
4.619788758

>  <Q>
-1.06163756

>  <Activity_Integrase>
Inactive_Integrase

NA
NA
NA
NA
$$$$

  Accelrys05311914302D 1   1.00000     0.00000     0

 31 34  0     0  0            999 V2000
    3.7529   -7.0167    0.0000 C   0  0  0  0  0  0           0  0  0
    3.0267   -6.6202    0.0000 C   0  0  0  0  0  0           0  0  0
    3.0081   -5.7950    0.0000 C   0  0  0  0  0  0           0  0  0
    3.7148   -5.3652    0.0000 C   0  0  0  0  0  0           0  0  0
    4.4418   -5.7668    0.0000 C   0  0  0  0  0  0           0  0  0
    4.4569   -6.5908    0.0000 C   0  0  0  0  0  0           0  0  0
    5.1459   -5.3401    0.0000 C   0  0  3  0  0  0           0  0  0
    5.1265   -4.5170    0.0000 C   0  0  0  0  0  0           0  0  0
    5.8675   -5.7401    0.0000 C   0  0  0  0  0  0           0  0  0
    5.8306   -4.0904    0.0000 C   0  0  0  0  0  0           0  0  0
    1.5561   -3.2661    0.0000 C   0  0  0  0  0  0           0  0  0
    1.5549   -4.0935    0.0000 C   0  0  0  0  0  0           0  0  0
    2.2697   -4.5064    0.0000 C   0  0  0  0  0  0           0  0  0
    2.9862   -4.0930    0.0000 C   0  0  0  0  0  0           0  0  0
    2.9833   -3.2625    0.0000 C   0  0  0  0  0  0           0  0  0
    2.2679   -2.8534    0.0000 C   0  0  0  0  0  0           0  0  0
    3.6958   -2.8500    0.0000 C   0  0  3  0  0  0           0  0  0
    4.4083   -3.2625    0.0000 C   0  0  0  0  0  0           0  0  0
    5.1208   -2.8500    0.0000 C   0  0  0  0  0  0           0  0  0
    5.8333   -3.2625    0.0000 N   0  0  3  0  0  0           0  0  0
    3.6917   -2.0250    0.0000 C   0  0  0  0  0  0           0  0  0
    7.9828   -2.8560    0.0000 C   0  0  0  0  0  0           0  0  0
    8.7759   -3.0832    0.0000 N   0  0  0  0  0  0           0  0  0
    9.2388   -2.4002    0.0000 C   0  0  0  0  0  0           0  0  0
    8.7294   -1.7479    0.0000 N   0  0  0  0  0  0           0  0  0
    7.9560   -2.0327    0.0000 C   0  0  0  0  0  0           0  0  0
    6.5527   -2.0291    0.0000 C   0  0  0  0  0  0           0  0  0
    6.5516   -2.8565    0.0000 C   0  0  0  0  0  0           0  0  0
    7.2664   -3.2694    0.0000 C   0  0  0  0  0  0           0  0  0
    7.2646   -1.6164    0.0000 C   0  0  0  0  0  0           0  0  0
   10.0625   -2.4000    0.0000 N   0  0  0  0  0  0           0  0  0
 15 16  2  0     0  0
 16 11  1  0     0  0
  7  8  1  0     0  0
 15 17  1  0     0  0
  8 10  1  0     0  0
 17 18  1  0     0  0
 18 19  1  0     0  0
  7  9  1  0     0  0
 19 20  1  0     0  0
  4  5  1  0     0  0
 17 21  1  0     0  0
 22 23  1  0     0  0
  2  3  1  0     0  0
  5  6  2  0     0  0
 11 12  2  0     0  0
  6  1  1  0     0  0
 12 13  1  0     0  0
 23 24  1  0     0  0
 24 25  2  0     0  0
 25 26  1  0     0  0
 26 22  1  0     0  0
  1  2  2  0     0  0
 13 14  2  0     0  0
 27 28  2  0     0  0
  5  7  1  0     0  0
 28 29  1  0     0  0
 29 22  2  0     0  0
 14 15  1  0     0  0
 26 30  2  0     0  0
 30 27  1  0     0  0
  3  4  2  0     0  0
 24 31  1  0     0  0
 28 20  1  0     0  0
 20 10  1  0     0  0
M  END
>  <prID>
696

>  <IDDB>
214688

>  <pIC50_HIV_Integrase>
5.036212173

>  <Q>
-1.870421891

>  <Activity_Integrase>
Inactive_Integrase

NA
NA
NA
NA
$$$$

  Accelrys05311914302D 1   1.00000     0.00000     0

 25 27  0     0  0            999 V2000
    2.9811   -3.2661    0.0000 C   0  0  0  0  0  0           0  0  0
    2.9799   -4.0935    0.0000 C   0  0  0  0  0  0           0  0  0
    3.6947   -4.5064    0.0000 C   0  0  0  0  0  0           0  0  0
    4.4112   -4.0930    0.0000 C   0  0  0  0  0  0           0  0  0
    4.4083   -3.2625    0.0000 C   0  0  0  0  0  0           0  0  0
    3.6929   -2.8534    0.0000 C   0  0  0  0  0  0           0  0  0
    5.1208   -2.8500    0.0000 S   0  0  3  0  0  0           0  0  0
    5.8333   -3.2625    0.0000 N   0  0  0  0  0  0           0  0  0
    7.9828   -2.8560    0.0000 C   0  0  0  0  0  0           0  0  0
    8.7759   -3.0832    0.0000 N   0  0  0  0  0  0           0  0  0
    9.2388   -2.4002    0.0000 C   0  0  0  0  0  0           0  0  0
    8.7294   -1.7479    0.0000 N   0  0  0  0  0  0           0  0  0
    7.9560   -2.0327    0.0000 C   0  0  0  0  0  0           0  0  0
    6.5527   -2.0291    0.0000 C   0  0  0  0  0  0           0  0  0
    6.5516   -2.8565    0.0000 C   0  0  0  0  0  0           0  0  0
    7.2664   -3.2694    0.0000 C   0  0  0  0  0  0           0  0  0
    7.2646   -1.6164    0.0000 C   0  0  0  0  0  0           0  0  0
   10.0625   -2.4000    0.0000 N   0  0  0  0  0  0           0  0  0
    5.8333   -2.4625    0.0000 O   0  0  0  0  0  0           0  0  0
    4.4292   -2.4000    0.0000 O   0  0  0  0  0  0           0  0  0
    5.1208   -4.5042    0.0000 Cl  0  0  0  0  0  0           0  0  0
    2.2625   -2.8500    0.0000 C   0  0  3  0  0  0           0  0  0
    1.5458   -3.2583    0.0000 F   0  0  0  0  0  0           0  0  0
    2.2583   -2.0250    0.0000 F   0  0  0  0  0  0           0  0  0
    1.5458   -2.4375    0.0000 F   0  0  0  0  0  0           0  0  0
 12 13  1  0     0  0
 13  9  1  0     0  0
  1  2  2  0     0  0
  5  7  1  0     0  0
 14 15  2  0     0  0
  3  4  2  0     0  0
 15 16  1  0     0  0
 16  9  2  0     0  0
  7  8  1  0     0  0
 13 17  2  0     0  0
 17 14  1  0     0  0
  9 10  1  0     0  0
 11 18  1  0     0  0
 15  8  1  0     0  0
  7 19  2  0     0  0
  4  5  1  0     0  0
  7 20  2  0     0  0
  2  3  1  0     0  0
  4 21  1  0     0  0
  5  6  2  0     0  0
  1 22  1  0     0  0
  6  1  1  0     0  0
 22 23  1  0     0  0
 10 11  1  0     0  0
 22 24  1  0     0  0
 11 12  2  0     0  0
 22 25  1  0     0  0
M  END
>  <prID>
697

>  <IDDB>
214689

>  <pIC50_HIV_Integrase>
5.744727495

>  <Q>
-12.01633541

>  <Activity_Integrase>
Inactive_Integrase

NA
NA
NA
NA
$$$$

  Accelrys05311914302D 1   1.00000     0.00000     0

 17 18  0     0  0            999 V2000
    4.4112   -4.0930    0.0000 C   0  0  0  0  0  0           0  0  0
    4.4083   -3.2625    0.0000 C   0  0  3  0  0  0           0  0  0
    3.6929   -2.8534    0.0000 C   0  0  0  0  0  0           0  0  0
    5.1208   -2.8500    0.0000 S   0  0  3  0  0  0           0  0  0
    5.8333   -3.2625    0.0000 N   0  0  0  0  0  0           0  0  0
    7.9828   -2.8560    0.0000 C   0  0  0  0  0  0           0  0  0
    8.7759   -3.0832    0.0000 N   0  0  0  0  0  0           0  0  0
    9.2388   -2.4002    0.0000 C   0  0  0  0  0  0           0  0  0
    8.7294   -1.7479    0.0000 N   0  0  0  0  0  0           0  0  0
    7.9560   -2.0327    0.0000 C   0  0  0  0  0  0           0  0  0
    6.5527   -2.0291    0.0000 C   0  0  0  0  0  0           0  0  0
    6.5516   -2.8565    0.0000 C   0  0  0  0  0  0           0  0  0
    7.2664   -3.2694    0.0000 C   0  0  0  0  0  0           0  0  0
    7.2646   -1.6164    0.0000 C   0  0  0  0  0  0           0  0  0
   10.0625   -2.4000    0.0000 N   0  0  0  0  0  0           0  0  0
    5.8333   -2.4625    0.0000 O   0  0  0  0  0  0           0  0  0
    4.4292   -2.4000    0.0000 O   0  0  0  0  0  0           0  0  0
  8  9  2  0     0  0
  9 10  1  0     0  0
 10  6  1  0     0  0
  6  7  1  0     0  0
  2  3  1  0     0  0
 11 12  2  0     0  0
  1  2  1  0     0  0
 12 13  1  0     0  0
 13  6  2  0     0  0
  2  4  1  0     0  0
 10 14  2  0     0  0
 14 11  1  0     0  0
  8 15  1  0     0  0
 12  5  1  0     0  0
  4  5  1  0     0  0
  4 16  2  0     0  0
  7  8  1  0     0  0
  4 17  2  0     0  0
M  END
>  <prID>
698

>  <IDDB>
214690

>  <pIC50_HIV_Integrase>
5.585026652

>  <Q>
-3.775040076

>  <Activity_Integrase>
Inactive_Integrase

NA
NA
NA
NA
$$$$

  Accelrys05311914302D 1   1.00000     0.00000     0

 22 25  0     0  0            999 V2000
   -1.4625   -1.4833    0.0000 C   0  0  0  0  0  0           0  0  0
   -1.4625   -2.3083    0.0000 C   0  0  0  0  0  0           0  0  0
   -0.7505   -2.7167    0.0000 C   0  0  0  0  0  0           0  0  0
   -0.0385   -2.3083    0.0000 C   0  0  0  0  0  0           0  0  0
   -0.7505   -1.0667    0.0000 C   0  0  0  0  0  0           0  0  0
    0.6180   -2.8107    0.0000 C   0  0  1  0  0  0           0  0  0
    1.3083   -3.2625    0.0000 C   0  0  3  0  0  0           0  0  0
    1.3387   -2.4374    0.0000 C   0  0  0  0  0  0           0  0  0
    3.4550   -2.0255    0.0000 C   0  0  0  0  0  0           0  0  0
    3.4538   -2.8529    0.0000 C   0  0  0  0  0  0           0  0  0
    4.1686   -3.2657    0.0000 C   0  0  0  0  0  0           0  0  0
    4.8851   -2.8524    0.0000 C   0  0  0  0  0  0           0  0  0
    4.8822   -2.0219    0.0000 C   0  0  0  0  0  0           0  0  0
    4.1668   -1.6127    0.0000 C   0  0  0  0  0  0           0  0  0
    2.0277   -2.0291    0.0000 C   0  0  0  0  0  0           0  0  0
    2.0266   -2.8565    0.0000 C   0  0  0  0  0  0           0  0  0
    2.7414   -3.2694    0.0000 C   0  0  0  0  0  0           0  0  0
    2.7396   -1.6164    0.0000 C   0  0  0  0  0  0           0  0  0
    5.5917   -1.6042    0.0000 C   0  0  0  0  0  0           0  0  0
    6.3042   -2.0167    0.0000 N   0  0  0  0  0  0           0  0  0
    5.5875   -0.7792    0.0000 N   0  0  0  0  0  0           0  0  0
   -0.0458   -1.4833    0.0000 C   0  0  0  0  0  0           0  0  0
  7  6  1  0     0  0
 11 12  2  0     0  0
  8  7  1  0     0  0
 12 13  1  0     0  0
  6  8  1  0     0  0
 13 14  2  0     0  0
 14  9  1  0     0  0
  1  2  2  0     0  0
 15 16  1  0     0  0
  1  5  1  0     0  0
 16 17  2  0     0  0
 17 10  1  0     0  0
  2  3  1  0     0  0
  9 18  1  0     0  0
 18 15  2  0     0  0
  3  4  2  0     0  0
 13 19  1  0     0  0
  9 10  2  0     0  0
 19 20  1  0     0  0
 22  5  2  0     0  0
 19 21  2  0     0  0
 16  7  1  0     0  0
  6  4  1  6     0  0
 10 11  1  0     0  0
  4 22  1  0     0  0
M  END
>  <prID>
699

>  <IDDB>
214691

>  <pIC50_HIV_Integrase>
4.036212173

>  <Q>
-0.991661882

>  <Activity_Integrase>
Inactive_Integrase

NA
NA
NA
NA
$$$$

  Accelrys05311914302D 1   1.00000     0.00000     0

 29 33  0     0  0            999 V2000
    2.2583   -2.6250    0.0000 C   0  0  0  0  0  0           0  0  0
    2.2583   -3.4500    0.0000 C   0  0  0  0  0  0           0  0  0
    2.9704   -3.8583    0.0000 C   0  0  0  0  0  0           0  0  0
    3.6824   -3.4500    0.0000 C   0  0  0  0  0  0           0  0  0
    3.6824   -2.6250    0.0000 C   0  0  0  0  0  0           0  0  0
    2.9704   -2.2083    0.0000 N   0  0  0  0  0  0           0  0  0
    2.9708   -4.6833    0.0000 C   0  0  0  0  0  0           0  0  0
    3.6829   -5.0917    0.0000 C   0  0  0  0  0  0           0  0  0
    4.3949   -4.6833    0.0000 C   0  0  0  0  0  0           0  0  0
    5.0514   -5.1857    0.0000 C   0  0  1  0  0  0           0  0  0
    5.7417   -5.6375    0.0000 C   0  0  3  0  0  0           0  0  0
    5.7721   -4.8124    0.0000 C   0  0  0  0  0  0           0  0  0
    7.8883   -4.4005    0.0000 C   0  0  0  0  0  0           0  0  0
    7.8872   -5.2279    0.0000 C   0  0  0  0  0  0           0  0  0
    8.6020   -5.6407    0.0000 C   0  0  0  0  0  0           0  0  0
    9.3184   -5.2274    0.0000 C   0  0  0  0  0  0           0  0  0
    9.3156   -4.3969    0.0000 C   0  0  0  0  0  0           0  0  0
    8.6002   -3.9877    0.0000 C   0  0  0  0  0  0           0  0  0
    6.4611   -4.4041    0.0000 C   0  0  0  0  0  0           0  0  0
    6.4599   -5.2315    0.0000 C   0  0  0  0  0  0           0  0  0
    7.1747   -5.6444    0.0000 C   0  0  0  0  0  0           0  0  0
    7.1729   -3.9914    0.0000 C   0  0  0  0  0  0           0  0  0
   10.0250   -3.9792    0.0000 C   0  0  0  0  0  0           0  0  0
   10.7375   -4.3917    0.0000 N   0  0  0  0  0  0           0  0  0
   10.0208   -3.1542    0.0000 N   0  0  0  0  0  0           0  0  0
    4.3875   -3.8583    0.0000 C   0  0  0  0  0  0           0  0  0
    4.3917   -2.2083    0.0000 C   0  0  3  0  0  0           0  0  0
    5.1042   -2.6208    0.0000 C   0  0  0  0  0  0           0  0  0
    4.3875   -1.3833    0.0000 C   0  0  0  0  0  0           0  0  0
 14 15  1  0     0  0
  1  2  1  0     0  0
 15 16  2  0     0  0
  1  6  1  0     0  0
 16 17  1  0     0  0
  7  8  1  0     0  0
 17 18  2  0     0  0
 18 13  1  0     0  0
  8  9  2  0     0  0
 26  4  2  0     0  0
 19 20  1  0     0  0
 11 10  1  0     0  0
 20 21  2  0     0  0
 21 14  1  0     0  0
 12 11  1  0     0  0
 13 22  1  0     0  0
 22 19  2  0     0  0
 10 12  1  0     0  0
 17 23  1  0     0  0
  2  3  1  0     0  0
 23 24  1  0     0  0
  3  4  1  0     0  0
 23 25  2  0     0  0
 20 11  1  0     0  0
 10  9  1  6     0  0
  4  5  1  0     0  0
  9 26  1  0     0  0
  5  6  2  0     0  0
  5 27  1  0     0  0
  3  7  2  0     0  0
 27 28  1  0     0  0
 13 14  2  0     0  0
 27 29  1  0     0  0
M  END
>  <prID>
700

>  <IDDB>
214692

>  <pIC50_HIV_Integrase>
3.73754891

>  <Q>
-2.244336777

>  <Activity_Integrase>
Inactive_Integrase

NA
NA
NA
NA
$$$$

  Accelrys05311914302D 1   1.00000     0.00000     0

 33 38  0     0  0            999 V2000
    4.3928   -1.3810    0.0000 C   0  0  0  0  0  0           0  0  0
    4.3917   -2.2083    0.0000 C   0  0  0  0  0  0           0  0  0
    5.1065   -2.6212    0.0000 C   0  0  0  0  0  0           0  0  0
    5.8229   -2.2079    0.0000 C   0  0  0  0  0  0           0  0  0
    5.8201   -1.3773    0.0000 C   0  0  0  0  0  0           0  0  0
    5.1047   -0.9682    0.0000 N   0  0  0  0  0  0           0  0  0
    2.2583   -2.6250    0.0000 C   0  0  0  0  0  0           0  0  0
    2.2583   -3.4500    0.0000 C   0  0  0  0  0  0           0  0  0
    2.9704   -3.8583    0.0000 C   0  0  0  0  0  0           0  0  0
    3.6824   -3.4500    0.0000 C   0  0  0  0  0  0           0  0  0
    3.6824   -2.6250    0.0000 C   0  0  3  0  0  0           0  0  0
    2.9704   -2.2083    0.0000 N   0  0  3  0  0  0           0  0  0
    2.9708   -4.6833    0.0000 C   0  0  0  0  0  0           0  0  0
    3.6829   -5.0917    0.0000 C   0  0  0  0  0  0           0  0  0
    4.3949   -4.6833    0.0000 C   0  0  0  0  0  0           0  0  0
    5.0514   -5.1857    0.0000 C   0  0  1  0  0  0           0  0  0
    5.7417   -5.6375    0.0000 C   0  0  3  0  0  0           0  0  0
    5.7721   -4.8124    0.0000 C   0  0  0  0  0  0           0  0  0
    7.8883   -4.4005    0.0000 C   0  0  0  0  0  0           0  0  0
    7.8872   -5.2279    0.0000 C   0  0  0  0  0  0           0  0  0
    8.6020   -5.6407    0.0000 C   0  0  0  0  0  0           0  0  0
    9.3184   -5.2274    0.0000 C   0  0  0  0  0  0           0  0  0
    9.3156   -4.3969    0.0000 C   0  0  0  0  0  0           0  0  0
    8.6002   -3.9877    0.0000 C   0  0  0  0  0  0           0  0  0
    6.4611   -4.4041    0.0000 C   0  0  0  0  0  0           0  0  0
    6.4599   -5.2315    0.0000 C   0  0  0  0  0  0           0  0  0
    7.1747   -5.6444    0.0000 C   0  0  0  0  0  0           0  0  0
    7.1729   -3.9914    0.0000 C   0  0  0  0  0  0           0  0  0
   10.0250   -3.9792    0.0000 C   0  0  0  0  0  0           0  0  0
   10.7375   -4.3917    0.0000 N   0  0  0  0  0  0           0  0  0
   10.0208   -3.1542    0.0000 N   0  0  0  0  0  0           0  0  0
    4.3875   -3.8583    0.0000 C   0  0  0  0  0  0           0  0  0
    2.9625   -1.3833    0.0000 C   0  0  0  0  0  0           0  0  0
 18 17  1  0     0  0
 16 18  1  0     0  0
  3  4  2  0     0  0
  4  5  1  0     0  0
  2  3  1  0     0  0
  5  6  2  0     0  0
 19 20  2  0     0  0
  7 12  1  0     0  0
 20 21  1  0     0  0
  8  9  1  0     0  0
 21 22  2  0     0  0
  9 10  1  0     0  0
 22 23  1  0     0  0
 10 11  1  0     0  0
 23 24  2  0     0  0
 24 19  1  0     0  0
 11 12  1  0     0  0
  9 13  2  0     0  0
 25 26  1  0     0  0
  6  1  1  0     0  0
 26 27  2  0     0  0
 27 20  1  0     0  0
  7  8  1  0     0  0
 19 28  1  0     0  0
 28 25  2  0     0  0
  1  2  2  0     0  0
 23 29  1  0     0  0
 13 14  1  0     0  0
 29 30  1  0     0  0
 14 15  2  0     0  0
 29 31  2  0     0  0
 26 17  1  0     0  0
 16 15  1  6     0  0
 32 10  2  0     0  0
 15 32  1  0     0  0
 11  2  1  0     0  0
 17 16  1  0     0  0
 12 33  1  0     0  0
M  END
>  <prID>
701

>  <IDDB>
214693

>  <pIC50_HIV_Integrase>
4.200659451

>  <Q>
-0.92027743

>  <Activity_Integrase>
Inactive_Integrase

NA
NA
NA
NA
$$$$

  Accelrys05311914302D 1   1.00000     0.00000     0

 34 39  0     0  0            999 V2000
    4.5817   -1.4026    0.0000 C   0  0  0  0  0  0           0  0  0
    5.3262   -1.0562    0.0000 C   0  0  0  0  0  0           0  0  0
    6.0676   -1.4224    0.0000 C   0  0  0  0  0  0           0  0  0
    4.3889   -2.2067    0.0000 C   0  0  3  0  0  0           0  0  0
    6.2460   -2.2266    0.0000 C   0  0  0  0  0  0           0  0  0
    4.8978   -2.8579    0.0000 C   0  0  0  0  0  0           0  0  0
    5.7237   -2.8637    0.0000 C   0  0  0  0  0  0           0  0  0
    2.2583   -2.6250    0.0000 C   0  0  0  0  0  0           0  0  0
    2.2583   -3.4500    0.0000 C   0  0  0  0  0  0           0  0  0
    2.9704   -3.8583    0.0000 C   0  0  0  0  0  0           0  0  0
    3.6824   -3.4500    0.0000 C   0  0  0  0  0  0           0  0  0
    3.6824   -2.6250    0.0000 C   0  0  3  0  0  0           0  0  0
    2.9704   -2.2083    0.0000 N   0  0  3  0  0  0           0  0  0
    2.9708   -4.6833    0.0000 C   0  0  0  0  0  0           0  0  0
    3.6829   -5.0917    0.0000 C   0  0  0  0  0  0           0  0  0
    4.3949   -4.6833    0.0000 C   0  0  0  0  0  0           0  0  0
    5.0514   -5.1857    0.0000 C   0  0  1  0  0  0           0  0  0
    5.7417   -5.6375    0.0000 C   0  0  3  0  0  0           0  0  0
    5.7721   -4.8124    0.0000 C   0  0  0  0  0  0           0  0  0
    7.8883   -4.4005    0.0000 C   0  0  0  0  0  0           0  0  0
    7.8872   -5.2279    0.0000 C   0  0  0  0  0  0           0  0  0
    8.6020   -5.6407    0.0000 C   0  0  0  0  0  0           0  0  0
    9.3184   -5.2274    0.0000 C   0  0  0  0  0  0           0  0  0
    9.3156   -4.3969    0.0000 C   0  0  0  0  0  0           0  0  0
    8.6002   -3.9877    0.0000 C   0  0  0  0  0  0           0  0  0
    6.4611   -4.4041    0.0000 C   0  0  0  0  0  0           0  0  0
    6.4599   -5.2315    0.0000 C   0  0  0  0  0  0           0  0  0
    7.1747   -5.6444    0.0000 C   0  0  0  0  0  0           0  0  0
    7.1729   -3.9914    0.0000 C   0  0  0  0  0  0           0  0  0
   10.0250   -3.9792    0.0000 C   0  0  0  0  0  0           0  0  0
   10.7375   -4.3917    0.0000 N   0  0  0  0  0  0           0  0  0
   10.0208   -3.1542    0.0000 N   0  0  0  0  0  0           0  0  0
    4.3875   -3.8583    0.0000 C   0  0  0  0  0  0           0  0  0
    2.9625   -1.3833    0.0000 C   0  0  0  0  0  0           0  0  0
 18 17  1  0     0  0
 19 18  1  0     0  0
 17 19  1  0     0  0
  1  4  1  0     0  0
  3  5  1  0     0  0
  2  3  1  0     0  0
  4  6  1  0     0  0
 20 21  2  0     0  0
  1  2  1  0     0  0
 21 22  1  0     0  0
  8 13  1  0     0  0
 22 23  2  0     0  0
  9 10  1  0     0  0
 23 24  1  0     0  0
 10 11  1  0     0  0
 24 25  2  0     0  0
 25 20  1  0     0  0
 11 12  1  0     0  0
 12 13  1  0     0  0
 26 27  1  0     0  0
 10 14  2  0     0  0
 27 28  2  0     0  0
 28 21  1  0     0  0
  5  7  1  0     0  0
 20 29  1  0     0  0
 29 26  2  0     0  0
  6  7  1  0     0  0
 24 30  1  0     0  0
  8  9  1  0     0  0
 30 31  1  0     0  0
 14 15  1  0     0  0
 30 32  2  0     0  0
 27 18  1  0     0  0
 17 16  1  6     0  0
 15 16  2  0     0  0
 16 33  1  0     0  0
 12  4  1  0     0  0
 33 11  2  0     0  0
 13 34  1  0     0  0
M  END
>  <prID>
702

>  <IDDB>
214694

>  <pIC50_HIV_Integrase>
4.26760624

>  <Q>
-3.367132409

>  <Activity_Integrase>
Inactive_Integrase

NA
NA
NA
NA
$$$$

  Accelrys05311914302D 1   1.00000     0.00000     0

 33 38  0     0  0            999 V2000
    4.3900   -1.3794    0.0000 C   0  0  0  0  0  0           0  0  0
    4.3889   -2.2067    0.0000 C   0  0  0  0  0  0           0  0  0
    5.1037   -2.6196    0.0000 C   0  0  0  0  0  0           0  0  0
    5.8201   -2.2063    0.0000 C   0  0  0  0  0  0           0  0  0
    5.8173   -1.3757    0.0000 C   0  0  0  0  0  0           0  0  0
    5.1019   -0.9666    0.0000 C   0  0  0  0  0  0           0  0  0
    2.2583   -2.6250    0.0000 C   0  0  0  0  0  0           0  0  0
    2.2583   -3.4500    0.0000 C   0  0  0  0  0  0           0  0  0
    2.9704   -3.8583    0.0000 C   0  0  0  0  0  0           0  0  0
    3.6824   -3.4500    0.0000 C   0  0  0  0  0  0           0  0  0
    3.6824   -2.6250    0.0000 C   0  0  3  0  0  0           0  0  0
    2.9704   -2.2083    0.0000 N   0  0  3  0  0  0           0  0  0
    2.9708   -4.6833    0.0000 C   0  0  0  0  0  0           0  0  0
    3.6829   -5.0917    0.0000 C   0  0  0  0  0  0           0  0  0
    4.3949   -4.6833    0.0000 C   0  0  0  0  0  0           0  0  0
    5.0514   -5.1857    0.0000 C   0  0  1  0  0  0           0  0  0
    5.7417   -5.6375    0.0000 C   0  0  3  0  0  0           0  0  0
    5.7721   -4.8124    0.0000 C   0  0  0  0  0  0           0  0  0
    7.8883   -4.4005    0.0000 C   0  0  0  0  0  0           0  0  0
    7.8872   -5.2279    0.0000 C   0  0  0  0  0  0           0  0  0
    8.6020   -5.6407    0.0000 C   0  0  0  0  0  0           0  0  0
    9.3184   -5.2274    0.0000 C   0  0  0  0  0  0           0  0  0
    9.3156   -4.3969    0.0000 C   0  0  0  0  0  0           0  0  0
    8.6002   -3.9877    0.0000 C   0  0  0  0  0  0           0  0  0
    6.4611   -4.4041    0.0000 C   0  0  0  0  0  0           0  0  0
    6.4599   -5.2315    0.0000 C   0  0  0  0  0  0           0  0  0
    7.1747   -5.6444    0.0000 C   0  0  0  0  0  0           0  0  0
    7.1729   -3.9914    0.0000 C   0  0  0  0  0  0           0  0  0
   10.0250   -3.9792    0.0000 C   0  0  0  0  0  0           0  0  0
   10.7375   -4.3917    0.0000 N   0  0  0  0  0  0           0  0  0
   10.0208   -3.1542    0.0000 N   0  0  0  0  0  0           0  0  0
    4.3875   -3.8583    0.0000 C   0  0  0  0  0  0           0  0  0
    2.9625   -1.3833    0.0000 C   0  0  0  0  0  0           0  0  0
 18 17  1  0     0  0
 16 18  1  0     0  0
  3  4  2  0     0  0
  4  5  1  0     0  0
  2  3  1  0     0  0
  5  6  2  0     0  0
 19 20  2  0     0  0
  7 12  1  0     0  0
 20 21  1  0     0  0
  8  9  1  0     0  0
 21 22  2  0     0  0
  9 10  1  0     0  0
 22 23  1  0     0  0
 10 11  1  0     0  0
 23 24  2  0     0  0
 24 19  1  0     0  0
 11 12  1  0     0  0
  9 13  2  0     0  0
 25 26  1  0     0  0
  6  1  1  0     0  0
 26 27  2  0     0  0
 27 20  1  0     0  0
  7  8  1  0     0  0
 19 28  1  0     0  0
 28 25  2  0     0  0
  1  2  2  0     0  0
 23 29  1  0     0  0
 13 14  1  0     0  0
 29 30  1  0     0  0
 14 15  2  0     0  0
 29 31  2  0     0  0
 26 17  1  0     0  0
 16 15  1  6     0  0
 32 10  2  0     0  0
 15 32  1  0     0  0
 11  2  1  0     0  0
 17 16  1  0     0  0
 12 33  1  0     0  0
M  END
>  <prID>
703

>  <IDDB>
214695

>  <pIC50_HIV_Integrase>
4.387216143

>  <Q>
-0.802082866

>  <Activity_Integrase>
Inactive_Integrase

NA
NA
NA
NA
$$$$

  Accelrys05311914302D 1   1.00000     0.00000     0

 33 38  0     0  0            999 V2000
    5.1042   -2.6208    0.0000 C   0  0  3  0  0  0           0  0  0
    5.1042   -3.4458    0.0000 C   0  0  0  0  0  0           0  0  0
    5.8162   -3.8542    0.0000 C   0  0  0  0  0  0           0  0  0
    6.5282   -3.4458    0.0000 C   0  0  0  0  0  0           0  0  0
    6.5282   -2.6208    0.0000 C   0  0  0  0  0  0           0  0  0
    5.8162   -2.2042    0.0000 C   0  0  0  0  0  0           0  0  0
    2.2583   -2.6250    0.0000 C   0  0  0  0  0  0           0  0  0
    2.2583   -3.4500    0.0000 C   0  0  0  0  0  0           0  0  0
    2.9704   -3.8583    0.0000 C   0  0  0  0  0  0           0  0  0
    3.6824   -3.4500    0.0000 C   0  0  0  0  0  0           0  0  0
    3.6824   -2.6250    0.0000 C   0  0  0  0  0  0           0  0  0
    2.9704   -2.2083    0.0000 N   0  0  0  0  0  0           0  0  0
    2.9708   -4.6833    0.0000 C   0  0  0  0  0  0           0  0  0
    3.6829   -5.0917    0.0000 C   0  0  0  0  0  0           0  0  0
    4.3949   -4.6833    0.0000 C   0  0  0  0  0  0           0  0  0
    5.0514   -5.1857    0.0000 C   0  0  1  0  0  0           0  0  0
    5.7417   -5.6375    0.0000 C   0  0  3  0  0  0           0  0  0
    5.7721   -4.8124    0.0000 C   0  0  0  0  0  0           0  0  0
    7.8883   -4.4005    0.0000 C   0  0  0  0  0  0           0  0  0
    7.8872   -5.2279    0.0000 C   0  0  0  0  0  0           0  0  0
    8.6020   -5.6407    0.0000 C   0  0  0  0  0  0           0  0  0
    9.3184   -5.2274    0.0000 C   0  0  0  0  0  0           0  0  0
    9.3156   -4.3969    0.0000 C   0  0  0  0  0  0           0  0  0
    8.6002   -3.9877    0.0000 C   0  0  0  0  0  0           0  0  0
    6.4611   -4.4041    0.0000 C   0  0  0  0  0  0           0  0  0
    6.4599   -5.2315    0.0000 C   0  0  0  0  0  0           0  0  0
    7.1747   -5.6444    0.0000 C   0  0  0  0  0  0           0  0  0
    7.1729   -3.9914    0.0000 C   0  0  0  0  0  0           0  0  0
   10.0250   -3.9792    0.0000 C   0  0  0  0  0  0           0  0  0
   10.7375   -4.3917    0.0000 N   0  0  0  0  0  0           0  0  0
   10.0208   -3.1542    0.0000 N   0  0  0  0  0  0           0  0  0
    4.3875   -3.8583    0.0000 C   0  0  0  0  0  0           0  0  0
    4.3917   -2.2083    0.0000 C   0  0  0  0  0  0           0  0  0
 18 17  1  0     0  0
 16 18  1  0     0  0
  1  2  1  0     0  0
  1  6  1  0     0  0
  2  3  1  0     0  0
  3  4  1  0     0  0
  4  5  1  0     0  0
 19 20  2  0     0  0
  7 12  1  0     0  0
 20 21  1  0     0  0
  8  9  1  0     0  0
 21 22  2  0     0  0
  9 10  1  0     0  0
 22 23  1  0     0  0
 10 11  1  0     0  0
 23 24  2  0     0  0
 24 19  1  0     0  0
 11 12  2  0     0  0
  9 13  2  0     0  0
 25 26  1  0     0  0
  5  6  1  0     0  0
 26 27  2  0     0  0
 27 20  1  0     0  0
  7  8  1  0     0  0
 19 28  1  0     0  0
 28 25  2  0     0  0
 23 29  1  0     0  0
 13 14  1  0     0  0
 29 30  1  0     0  0
 14 15  2  0     0  0
 29 31  2  0     0  0
 26 17  1  0     0  0
 16 15  1  6     0  0
 32 10  2  0     0  0
 15 32  1  0     0  0
 17 16  1  0     0  0
 11 33  1  0     0  0
 33  1  1  0     0  0
M  END
>  <prID>
704

>  <IDDB>
214696

>  <pIC50_HIV_Integrase>
4.677780705

>  <Q>
-3.703283458

>  <Activity_Integrase>
Inactive_Integrase

NA
NA
NA
NA
$$$$

  Accelrys05311914302D 1   1.00000     0.00000     0

 33 38  0     0  0            999 V2000
    4.3917   -1.3833    0.0000 C   0  0  0  0  0  0           0  0  0
    4.3917   -2.2083    0.0000 C   0  0  3  0  0  0           0  0  0
    5.1037   -2.6167    0.0000 C   0  0  0  0  0  0           0  0  0
    5.8157   -2.2083    0.0000 C   0  0  0  0  0  0           0  0  0
    5.8157   -1.3833    0.0000 C   0  0  3  0  0  0           0  0  0
    5.1037   -0.9667    0.0000 C   0  0  0  0  0  0           0  0  0
    2.2583   -2.6250    0.0000 C   0  0  0  0  0  0           0  0  0
    2.2583   -3.4500    0.0000 C   0  0  0  0  0  0           0  0  0
    2.9704   -3.8583    0.0000 C   0  0  0  0  0  0           0  0  0
    3.6824   -3.4500    0.0000 C   0  0  0  0  0  0           0  0  0
    3.6824   -2.6250    0.0000 C   0  0  0  0  0  0           0  0  0
    2.9704   -2.2083    0.0000 N   0  0  0  0  0  0           0  0  0
    2.9708   -4.6833    0.0000 C   0  0  0  0  0  0           0  0  0
    3.6829   -5.0917    0.0000 C   0  0  0  0  0  0           0  0  0
    4.3949   -4.6833    0.0000 C   0  0  0  0  0  0           0  0  0
    5.0514   -5.1857    0.0000 C   0  0  1  0  0  0           0  0  0
    5.7417   -5.6375    0.0000 C   0  0  3  0  0  0           0  0  0
    5.7721   -4.8124    0.0000 C   0  0  0  0  0  0           0  0  0
    7.8883   -4.4005    0.0000 C   0  0  0  0  0  0           0  0  0
    7.8872   -5.2279    0.0000 C   0  0  0  0  0  0           0  0  0
    8.6020   -5.6407    0.0000 C   0  0  0  0  0  0           0  0  0
    9.3184   -5.2274    0.0000 C   0  0  0  0  0  0           0  0  0
    9.3156   -4.3969    0.0000 C   0  0  0  0  0  0           0  0  0
    8.6002   -3.9877    0.0000 C   0  0  0  0  0  0           0  0  0
    6.4611   -4.4041    0.0000 C   0  0  0  0  0  0           0  0  0
    6.4599   -5.2315    0.0000 C   0  0  0  0  0  0           0  0  0
    7.1747   -5.6444    0.0000 C   0  0  0  0  0  0           0  0  0
    7.1729   -3.9914    0.0000 C   0  0  0  0  0  0           0  0  0
   10.0250   -3.9792    0.0000 C   0  0  0  0  0  0           0  0  0
   10.7375   -4.3917    0.0000 N   0  0  0  0  0  0           0  0  0
   10.0208   -3.1542    0.0000 N   0  0  0  0  0  0           0  0  0
    4.3875   -3.8583    0.0000 C   0  0  0  0  0  0           0  0  0
    6.5250   -0.9667    0.0000 C   0  0  0  0  0  0           0  0  0
 18 17  1  0     0  0
 16 18  1  0     0  0
  1  2  1  0     0  0
  1  6  1  0     0  0
  2  3  1  0     0  0
  3  4  1  0     0  0
  4  5  1  0     0  0
 19 20  2  0     0  0
  7 12  1  0     0  0
 20 21  1  0     0  0
  8  9  1  0     0  0
 21 22  2  0     0  0
  9 10  1  0     0  0
 22 23  1  0     0  0
 10 11  1  0     0  0
 23 24  2  0     0  0
 24 19  1  0     0  0
 11 12  2  0     0  0
  9 13  2  0     0  0
 25 26  1  0     0  0
  5  6  1  0     0  0
 26 27  2  0     0  0
 27 20  1  0     0  0
  7  8  1  0     0  0
 19 28  1  0     0  0
 28 25  2  0     0  0
 23 29  1  0     0  0
 13 14  1  0     0  0
 29 30  1  0     0  0
 14 15  2  0     0  0
 29 31  2  0     0  0
 26 17  1  0     0  0
 16 15  1  6     0  0
 32 10  2  0     0  0
 15 32  1  0     0  0
 11  2  1  0     0  0
 17 16  1  0     0  0
  5 33  1  0     0  0
M  END
>  <prID>
705

>  <IDDB>
214697

>  <pIC50_HIV_Integrase>
4.721246399

>  <Q>
-3.468453755

>  <Activity_Integrase>
Inactive_Integrase

NA
NA
NA
NA
$$$$

  Accelrys05311914302D 1   1.00000     0.00000     0

 36 41  0     0  0            999 V2000
    4.3917   -1.3833    0.0000 C   0  0  0  0  0  0           0  0  0
    4.3917   -2.2083    0.0000 C   0  0  3  0  0  0           0  0  0
    5.1037   -2.6167    0.0000 C   0  0  0  0  0  0           0  0  0
    5.8157   -2.2083    0.0000 C   0  0  0  0  0  0           0  0  0
    5.8157   -1.3833    0.0000 C   0  0  3  0  0  0           0  0  0
    5.1037   -0.9667    0.0000 C   0  0  0  0  0  0           0  0  0
    2.2583   -2.6250    0.0000 C   0  0  0  0  0  0           0  0  0
    2.2583   -3.4500    0.0000 C   0  0  0  0  0  0           0  0  0
    2.9704   -3.8583    0.0000 C   0  0  0  0  0  0           0  0  0
    3.6824   -3.4500    0.0000 C   0  0  0  0  0  0           0  0  0
    3.6824   -2.6250    0.0000 C   0  0  0  0  0  0           0  0  0
    2.9704   -2.2083    0.0000 N   0  0  0  0  0  0           0  0  0
    2.9708   -4.6833    0.0000 C   0  0  0  0  0  0           0  0  0
    3.6829   -5.0917    0.0000 C   0  0  0  0  0  0           0  0  0
    4.3949   -4.6833    0.0000 C   0  0  0  0  0  0           0  0  0
    5.0514   -5.1857    0.0000 C   0  0  1  0  0  0           0  0  0
    5.7417   -5.6375    0.0000 C   0  0  3  0  0  0           0  0  0
    5.7721   -4.8124    0.0000 C   0  0  0  0  0  0           0  0  0
    7.8883   -4.4005    0.0000 C   0  0  0  0  0  0           0  0  0
    7.8872   -5.2279    0.0000 C   0  0  0  0  0  0           0  0  0
    8.6020   -5.6407    0.0000 C   0  0  0  0  0  0           0  0  0
    9.3184   -5.2274    0.0000 C   0  0  0  0  0  0           0  0  0
    9.3156   -4.3969    0.0000 C   0  0  0  0  0  0           0  0  0
    8.6002   -3.9877    0.0000 C   0  0  0  0  0  0           0  0  0
    6.4611   -4.4041    0.0000 C   0  0  0  0  0  0           0  0  0
    6.4599   -5.2315    0.0000 C   0  0  0  0  0  0           0  0  0
    7.1747   -5.6444    0.0000 C   0  0  0  0  0  0           0  0  0
    7.1729   -3.9914    0.0000 C   0  0  0  0  0  0           0  0  0
   10.0250   -3.9792    0.0000 C   0  0  0  0  0  0           0  0  0
   10.7375   -4.3917    0.0000 N   0  0  0  0  0  0           0  0  0
   10.0208   -3.1542    0.0000 N   0  0  0  0  0  0           0  0  0
    4.3875   -3.8583    0.0000 C   0  0  0  0  0  0           0  0  0
    6.5250   -0.9667    0.0000 C   0  0  3  0  0  0           0  0  0
    7.3917   -1.4958    0.0000 C   0  0  0  0  0  0           0  0  0
    6.5208    0.0958    0.0000 C   0  0  0  0  0  0           0  0  0
    7.2375   -0.5500    0.0000 C   0  0  0  0  0  0           0  0  0
  1  6  1  0     0  0
  2  3  1  0     0  0
  3  4  1  0     0  0
  4  5  1  0     0  0
 19 20  2  0     0  0
  7 12  1  0     0  0
 20 21  1  0     0  0
  8  9  1  0     0  0
 21 22  2  0     0  0
  9 10  1  0     0  0
 22 23  1  0     0  0
 10 11  1  0     0  0
 23 24  2  0     0  0
 24 19  1  0     0  0
 11 12  2  0     0  0
  9 13  2  0     0  0
 25 26  1  0     0  0
  5  6  1  0     0  0
 26 27  2  0     0  0
 27 20  1  0     0  0
  7  8  1  0     0  0
 19 28  1  0     0  0
 28 25  2  0     0  0
 23 29  1  0     0  0
 13 14  1  0     0  0
 29 30  1  0     0  0
 14 15  2  0     0  0
 29 31  2  0     0  0
 26 17  1  0     0  0
 16 15  1  6     0  0
 32 10  2  0     0  0
 15 32  1  0     0  0
 11  2  1  0     0  0
 17 16  1  0     0  0
  5 33  1  0     0  0
 18 17  1  0     0  0
 33 34  1  0     0  0
 16 18  1  0     0  0
 33 35  1  0     0  0
  1  2  1  0     0  0
 33 36  1  0     0  0
M  END
>  <prID>
706

>  <IDDB>
214698

>  <pIC50_HIV_Integrase>
5.468521083

>  <Q>
-3.638096022

>  <Activity_Integrase>
Inactive_Integrase

NA
NA
NA
NA
$$$$

  Accelrys05311914302D 1   1.00000     0.00000     0

 32 36  0     0  0            999 V2000
    4.3917   -1.3833    0.0000 C   0  0  0  0  0  0           0  0  0
    4.3917   -2.2083    0.0000 C   0  0  3  0  0  0           0  0  0
    5.1037   -2.6167    0.0000 C   0  0  0  0  0  0           0  0  0
    2.2583   -2.6250    0.0000 C   0  0  0  0  0  0           0  0  0
    2.2583   -3.4500    0.0000 C   0  0  0  0  0  0           0  0  0
    2.9704   -3.8583    0.0000 C   0  0  0  0  0  0           0  0  0
    3.6824   -3.4500    0.0000 C   0  0  0  0  0  0           0  0  0
    3.6824   -2.6250    0.0000 C   0  0  3  0  0  0           0  0  0
    2.9704   -2.2083    0.0000 N   0  0  3  0  0  0           0  0  0
    2.9708   -4.6833    0.0000 C   0  0  0  0  0  0           0  0  0
    3.6829   -5.0917    0.0000 C   0  0  0  0  0  0           0  0  0
    4.3949   -4.6833    0.0000 C   0  0  0  0  0  0           0  0  0
    5.0514   -5.1857    0.0000 C   0  0  1  0  0  0           0  0  0
    5.7417   -5.6375    0.0000 C   0  0  3  0  0  0           0  0  0
    5.7721   -4.8124    0.0000 C   0  0  0  0  0  0           0  0  0
    7.8883   -4.4005    0.0000 C   0  0  0  0  0  0           0  0  0
    7.8872   -5.2279    0.0000 C   0  0  0  0  0  0           0  0  0
    8.6020   -5.6407    0.0000 C   0  0  0  0  0  0           0  0  0
    9.3184   -5.2274    0.0000 C   0  0  0  0  0  0           0  0  0
    9.3156   -4.3969    0.0000 C   0  0  0  0  0  0           0  0  0
    8.6002   -3.9877    0.0000 C   0  0  0  0  0  0           0  0  0
    6.4611   -4.4041    0.0000 C   0  0  0  0  0  0           0  0  0
    6.4599   -5.2315    0.0000 C   0  0  0  0  0  0           0  0  0
    7.1747   -5.6444    0.0000 C   0  0  0  0  0  0           0  0  0
    7.1729   -3.9914    0.0000 C   0  0  0  0  0  0           0  0  0
   10.0250   -3.9792    0.0000 C   0  0  0  0  0  0           0  0  0
   10.7375   -4.3917    0.0000 N   0  0  0  0  0  0           0  0  0
   10.0208   -3.1542    0.0000 N   0  0  0  0  0  0           0  0  0
    4.3875   -3.8583    0.0000 C   0  0  0  0  0  0           0  0  0
    2.9625   -1.3833    0.0000 C   0  0  0  0  0  0           0  0  0
    2.2458   -0.9708    0.0000 C   0  0  0  0  0  0           0  0  0
    3.6750   -0.9667    0.0000 O   0  0  0  0  0  0           0  0  0
  7  8  1  0     0  0
 16 17  2  0     0  0
  8  9  1  0     0  0
 17 18  1  0     0  0
  6 10  2  0     0  0
 18 19  2  0     0  0
  2  3  1  0     0  0
 19 20  1  0     0  0
  4  5  1  0     0  0
 20 21  2  0     0  0
 21 16  1  0     0  0
  1  2  1  0     0  0
 10 11  1  0     0  0
 22 23  1  0     0  0
 11 12  2  0     0  0
 23 24  2  0     0  0
 24 17  1  0     0  0
 29  7  2  0     0  0
 16 25  1  0     0  0
 25 22  2  0     0  0
 14 13  1  0     0  0
 20 26  1  0     0  0
 15 14  1  0     0  0
 26 27  1  0     0  0
 13 15  1  0     0  0
 26 28  2  0     0  0
 23 14  1  0     0  0
 13 12  1  6     0  0
 12 29  1  0     0  0
  8  2  1  0     0  0
  4  9  1  0     0  0
  9 30  1  0     0  0
  5  6  1  0     0  0
 30 31  1  0     0  0
  6  7  1  0     0  0
 30 32  2  0     0  0
M  END
>  <prID>
707

>  <IDDB>
214699

>  <pIC50_HIV_Integrase>
4.214670165

>  <Q>
-2.625219051

>  <Activity_Integrase>
Inactive_Integrase

NA
NA
NA
NA
$$$$

  Accelrys05311914302D 1   1.00000     0.00000     0

 32 36  0     0  0            999 V2000
    4.3917   -1.3833    0.0000 C   0  0  0  0  0  0           0  0  0
    4.3917   -2.2083    0.0000 C   0  0  0  0  0  0           0  0  0
    2.2583   -2.6250    0.0000 N   0  0  3  0  0  0           0  0  0
    2.2583   -3.4500    0.0000 C   0  0  0  0  0  0           0  0  0
    2.9704   -3.8583    0.0000 C   0  0  0  0  0  0           0  0  0
    3.6824   -3.4500    0.0000 C   0  0  0  0  0  0           0  0  0
    3.6824   -2.6250    0.0000 C   0  0  3  0  0  0           0  0  0
    2.9704   -2.2083    0.0000 C   0  0  0  0  0  0           0  0  0
    2.9708   -4.6833    0.0000 C   0  0  0  0  0  0           0  0  0
    3.6829   -5.0917    0.0000 C   0  0  0  0  0  0           0  0  0
    4.3949   -4.6833    0.0000 C   0  0  0  0  0  0           0  0  0
    5.0514   -5.1857    0.0000 C   0  0  1  0  0  0           0  0  0
    5.7417   -5.6375    0.0000 C   0  0  3  0  0  0           0  0  0
    5.7721   -4.8124    0.0000 C   0  0  0  0  0  0           0  0  0
    7.8883   -4.4005    0.0000 C   0  0  0  0  0  0           0  0  0
    7.8872   -5.2279    0.0000 C   0  0  0  0  0  0           0  0  0
    8.6020   -5.6407    0.0000 C   0  0  0  0  0  0           0  0  0
    9.3184   -5.2274    0.0000 C   0  0  0  0  0  0           0  0  0
    9.3156   -4.3969    0.0000 C   0  0  0  0  0  0           0  0  0
    8.6002   -3.9877    0.0000 C   0  0  0  0  0  0           0  0  0
    6.4611   -4.4041    0.0000 C   0  0  0  0  0  0           0  0  0
    6.4599   -5.2315    0.0000 C   0  0  0  0  0  0           0  0  0
    7.1747   -5.6444    0.0000 C   0  0  0  0  0  0           0  0  0
    7.1729   -3.9914    0.0000 C   0  0  0  0  0  0           0  0  0
   10.0250   -3.9792    0.0000 C   0  0  0  0  0  0           0  0  0
   10.7375   -4.3917    0.0000 N   0  0  0  0  0  0           0  0  0
   10.0208   -3.1542    0.0000 N   0  0  0  0  0  0           0  0  0
    4.3875   -3.8583    0.0000 C   0  0  0  0  0  0           0  0  0
    1.5417   -2.2125    0.0000 C   0  0  0  0  0  0           0  0  0
    1.5375   -1.3875    0.0000 O   0  0  0  0  0  0           0  0  0
    0.8250   -2.6208    0.0000 O   0  0  0  0  0  0           0  0  0
    0.8083   -0.9333    0.0000 C   0  0  0  0  0  0           0  0  0
  5  9  2  0     0  0
 16 17  1  0     0  0
 17 18  2  0     0  0
  1  2  1  0     0  0
 18 19  1  0     0  0
  3  4  1  0     0  0
 19 20  2  0     0  0
 20 15  1  0     0  0
  9 10  1  0     0  0
 10 11  2  0     0  0
 21 22  1  0     0  0
 28  6  2  0     0  0
 22 23  2  0     0  0
 23 16  1  0     0  0
 13 12  1  0     0  0
 15 24  1  0     0  0
 24 21  2  0     0  0
 14 13  1  0     0  0
 19 25  1  0     0  0
 12 14  1  0     0  0
 25 26  1  0     0  0
  3  8  1  0     0  0
 25 27  2  0     0  0
 22 13  1  0     0  0
 12 11  1  6     0  0
  4  5  1  0     0  0
 11 28  1  0     0  0
  7  2  1  0     0  0
  5  6  1  0     0  0
  3 29  1  0     0  0
  6  7  1  0     0  0
 29 30  1  0     0  0
  7  8  1  0     0  0
 29 31  2  0     0  0
 15 16  2  0     0  0
 30 32  1  0     0  0
M  END
>  <prID>
708

>  <IDDB>
214700

>  <pIC50_HIV_Integrase>
4.552841969

>  <Q>
-2.164797788

>  <Activity_Integrase>
Inactive_Integrase

NA
NA
NA
NA
$$$$

  Accelrys05311914302D 1   1.00000     0.00000     0

 35 40  0     0  0            999 V2000
    0.0611   -3.8213    0.0000 C   0  0  0  0  0  0           0  0  0
    0.7907   -3.4312    0.0000 C   0  0  0  0  0  0           0  0  0
    0.8166   -2.6062    0.0000 C   0  0  0  0  0  0           0  0  0
    0.1137   -2.1702    0.0000 C   0  0  0  0  0  0           0  0  0
   -0.6168   -2.5653    0.0000 C   0  0  0  0  0  0           0  0  0
   -0.6392   -3.3891    0.0000 C   0  0  0  0  0  0           0  0  0
    5.1167   -2.6208    0.0000 C   0  0  0  0  0  0           0  0  0
    4.3917   -2.2083    0.0000 C   0  0  0  0  0  0           0  0  0
    2.2583   -2.6250    0.0000 N   0  0  3  0  0  0           0  0  0
    2.2583   -3.4500    0.0000 C   0  0  0  0  0  0           0  0  0
    2.9704   -3.8583    0.0000 C   0  0  0  0  0  0           0  0  0
    3.6824   -3.4500    0.0000 C   0  0  0  0  0  0           0  0  0
    3.6824   -2.6250    0.0000 C   0  0  3  0  0  0           0  0  0
    2.9704   -2.2083    0.0000 C   0  0  0  0  0  0           0  0  0
    2.9708   -4.6833    0.0000 C   0  0  0  0  0  0           0  0  0
    3.6829   -5.0917    0.0000 C   0  0  0  0  0  0           0  0  0
    4.3949   -4.6833    0.0000 C   0  0  0  0  0  0           0  0  0
    5.0514   -5.1857    0.0000 C   0  0  1  0  0  0           0  0  0
    5.7417   -5.6375    0.0000 C   0  0  3  0  0  0           0  0  0
    5.7721   -4.8124    0.0000 C   0  0  0  0  0  0           0  0  0
    7.8883   -4.4005    0.0000 C   0  0  0  0  0  0           0  0  0
    7.8872   -5.2279    0.0000 C   0  0  0  0  0  0           0  0  0
    8.6020   -5.6407    0.0000 C   0  0  0  0  0  0           0  0  0
    9.3184   -5.2274    0.0000 C   0  0  0  0  0  0           0  0  0
    9.3156   -4.3969    0.0000 C   0  0  0  0  0  0           0  0  0
    8.6002   -3.9877    0.0000 C   0  0  0  0  0  0           0  0  0
    6.4611   -4.4041    0.0000 C   0  0  0  0  0  0           0  0  0
    6.4599   -5.2315    0.0000 C   0  0  0  0  0  0           0  0  0
    7.1747   -5.6444    0.0000 C   0  0  0  0  0  0           0  0  0
    7.1729   -3.9914    0.0000 C   0  0  0  0  0  0           0  0  0
   10.0250   -3.9792    0.0000 C   0  0  0  0  0  0           0  0  0
   10.7375   -4.3917    0.0000 N   0  0  0  0  0  0           0  0  0
   10.0208   -3.1542    0.0000 N   0  0  0  0  0  0           0  0  0
    4.3875   -3.8583    0.0000 C   0  0  0  0  0  0           0  0  0
    1.5417   -2.2125    0.0000 C   0  0  0  0  0  0           0  0  0
 19 18  1  0     0  0
 20 19  1  0     0  0
 18 20  1  0     0  0
  4  5  1  0     0  0
  2  3  1  0     0  0
  5  6  2  0     0  0
  6  1  1  0     0  0
 21 22  2  0     0  0
  7  8  1  0     0  0
 22 23  1  0     0  0
  9 14  1  0     0  0
 23 24  2  0     0  0
 10 11  1  0     0  0
 24 25  1  0     0  0
 11 12  1  0     0  0
 25 26  2  0     0  0
 26 21  1  0     0  0
 12 13  1  0     0  0
 13 14  1  0     0  0
 27 28  1  0     0  0
 11 15  2  0     0  0
 28 29  2  0     0  0
 29 22  1  0     0  0
  1  2  2  0     0  0
 21 30  1  0     0  0
 30 27  2  0     0  0
  3  4  2  0     0  0
 25 31  1  0     0  0
  9 10  1  0     0  0
 31 32  1  0     0  0
 15 16  1  0     0  0
 31 33  2  0     0  0
 28 19  1  0     0  0
 18 17  1  6     0  0
 16 17  2  0     0  0
 17 34  1  0     0  0
 13  8  1  0     0  0
 34 12  2  0     0  0
  9 35  1  0     0  0
 35  3  1  0     0  0
M  END
>  <prID>
709

>  <IDDB>
214701

>  <pIC50_HIV_Integrase>
5.148741651

>  <Q>
-1.255373795

>  <Activity_Integrase>
Inactive_Integrase

NA
NA
NA
NA
$$$$

  Accelrys05311914302D 1   1.00000     0.00000     0

 32 36  0     0  0            999 V2000
    5.1167   -2.6208    0.0000 C   0  0  0  0  0  0           0  0  0
    4.3917   -2.2083    0.0000 C   0  0  3  0  0  0           0  0  0
    2.2583   -2.6250    0.0000 C   0  0  0  0  0  0           0  0  0
    2.2583   -3.4500    0.0000 C   0  0  0  0  0  0           0  0  0
    2.9704   -3.8583    0.0000 C   0  0  0  0  0  0           0  0  0
    3.6824   -3.4500    0.0000 C   0  0  0  0  0  0           0  0  0
    3.6824   -2.6250    0.0000 C   0  0  3  0  0  0           0  0  0
    2.9704   -2.2083    0.0000 N   0  0  3  0  0  0           0  0  0
    2.9708   -4.6833    0.0000 C   0  0  0  0  0  0           0  0  0
    3.6829   -5.0917    0.0000 C   0  0  0  0  0  0           0  0  0
    4.3949   -4.6833    0.0000 C   0  0  0  0  0  0           0  0  0
    5.0514   -5.1857    0.0000 C   0  0  1  0  0  0           0  0  0
    5.7417   -5.6375    0.0000 C   0  0  3  0  0  0           0  0  0
    5.7721   -4.8124    0.0000 C   0  0  0  0  0  0           0  0  0
    7.8883   -4.4005    0.0000 C   0  0  0  0  0  0           0  0  0
    7.8872   -5.2279    0.0000 C   0  0  0  0  0  0           0  0  0
    8.6020   -5.6407    0.0000 C   0  0  0  0  0  0           0  0  0
    9.3184   -5.2274    0.0000 C   0  0  0  0  0  0           0  0  0
    9.3156   -4.3969    0.0000 C   0  0  0  0  0  0           0  0  0
    8.6002   -3.9877    0.0000 C   0  0  0  0  0  0           0  0  0
    6.4611   -4.4041    0.0000 C   0  0  0  0  0  0           0  0  0
    6.4599   -5.2315    0.0000 C   0  0  0  0  0  0           0  0  0
    7.1747   -5.6444    0.0000 C   0  0  0  0  0  0           0  0  0
    7.1729   -3.9914    0.0000 C   0  0  0  0  0  0           0  0  0
   10.0250   -3.9792    0.0000 C   0  0  0  0  0  0           0  0  0
   10.7375   -4.3917    0.0000 N   0  0  0  0  0  0           0  0  0
   10.0208   -3.1542    0.0000 N   0  0  0  0  0  0           0  0  0
    4.3875   -3.8583    0.0000 C   0  0  0  0  0  0           0  0  0
    4.3875   -1.3833    0.0000 C   0  0  0  0  0  0           0  0  0
    2.9625   -1.3833    0.0000 C   0  0  0  0  0  0           0  0  0
    2.2458   -0.9708    0.0000 C   0  0  0  0  0  0           0  0  0
    2.2417   -0.1458    0.0000 C   0  0  0  0  0  0           0  0  0
  5  9  2  0     0  0
 16 17  1  0     0  0
 17 18  2  0     0  0
  1  2  1  0     0  0
 18 19  1  0     0  0
  3  4  1  0     0  0
 19 20  2  0     0  0
 20 15  1  0     0  0
  9 10  1  0     0  0
 10 11  2  0     0  0
 21 22  1  0     0  0
 28  6  2  0     0  0
 22 23  2  0     0  0
 23 16  1  0     0  0
 13 12  1  0     0  0
 15 24  1  0     0  0
 24 21  2  0     0  0
 14 13  1  0     0  0
 19 25  1  0     0  0
 12 14  1  0     0  0
 25 26  1  0     0  0
  3  8  1  0     0  0
 25 27  2  0     0  0
 22 13  1  0     0  0
 12 11  1  6     0  0
  4  5  1  0     0  0
 11 28  1  0     0  0
  7  2  1  0     0  0
  5  6  1  0     0  0
  2 29  1  0     0  0
  6  7  1  0     0  0
  8 30  1  0     0  0
  7  8  1  0     0  0
 30 31  1  0     0  0
 15 16  2  0     0  0
 31 32  2  0     0  0
M  END
>  <prID>
710

>  <IDDB>
214702

>  <pIC50_HIV_Integrase>
5.619788758

>  <Q>
-1.816726796

>  <Activity_Integrase>
Inactive_Integrase

NA
NA
NA
NA
$$$$

  Accelrys05311914302D 1   1.00000     0.00000     0

 21 23  0     0  0            999 V2000
    0.7902   -3.9291    0.0000 C   0  0  0  0  0  0           0  0  0
    0.7891   -4.7565    0.0000 C   0  0  0  0  0  0           0  0  0
    1.5039   -5.1694    0.0000 C   0  0  0  0  0  0           0  0  0
    2.2203   -4.7560    0.0000 C   0  0  0  0  0  0           0  0  0
    2.2175   -3.9255    0.0000 C   0  0  0  0  0  0           0  0  0
    1.5021   -3.5164    0.0000 C   0  0  0  0  0  0           0  0  0
    3.6500   -3.1083    0.0000 C   0  0  0  0  0  0           0  0  0
    5.7966   -1.8713    0.0000 C   0  0  0  0  0  0           0  0  0
    5.7955   -2.6987    0.0000 C   0  0  0  0  0  0           0  0  0
    6.5103   -3.1116    0.0000 C   0  0  0  0  0  0           0  0  0
    7.2267   -2.6982    0.0000 C   0  0  0  0  0  0           0  0  0
    7.2239   -1.8677    0.0000 C   0  0  0  0  0  0           0  0  0
    6.5085   -1.4586    0.0000 C   0  0  0  0  0  0           0  0  0
    4.3694   -1.8750    0.0000 C   0  0  0  0  0  0           0  0  0
    4.3682   -2.7023    0.0000 C   0  0  0  0  0  0           0  0  0
    5.0831   -3.1152    0.0000 C   0  0  0  0  0  0           0  0  0
    5.0813   -1.4622    0.0000 C   0  0  0  0  0  0           0  0  0
    7.9333   -1.4500    0.0000 C   0  0  0  0  0  0           0  0  0
    8.6458   -1.8625    0.0000 N   0  0  0  0  0  0           0  0  0
    7.9292   -0.6250    0.0000 N   0  0  0  0  0  0           0  0  0
    2.9333   -3.5167    0.0000 C   0  0  0  0  0  0           0  0  0
  5  6  2  0     0  0
 11 12  1  0     0  0
  6  1  1  0     0  0
 12 13  2  0     0  0
 13  8  1  0     0  0
  1  2  2  0     0  0
  3  4  2  0     0  0
 14 15  1  0     0  0
 15 16  2  0     0  0
 16  9  1  0     0  0
  8  9  2  0     0  0
  8 17  1  0     0  0
 17 14  2  0     0  0
  4  5  1  0     0  0
 12 18  1  0     0  0
  9 10  1  0     0  0
 18 19  1  0     0  0
  2  3  1  0     0  0
 18 20  2  0     0  0
 15  7  1  0     0  0
 10 11  2  0     0  0
  7 21  3  0     0  0
 21  5  1  0     0  0
M  END
>  <prID>
711

>  <IDDB>
214703

>  <pIC50_HIV_Integrase>
4.657577319

>  <Q>
0.919195942

>  <Activity_Integrase>
Inactive_Integrase

NA
NA
NA
NA
$$$$

  Accelrys05311914302D 1   1.00000     0.00000     0

 21 23  0     0  0            999 V2000
    0.7902   -3.9291    0.0000 C   0  0  0  0  0  0           0  0  0
    0.7891   -4.7565    0.0000 C   0  0  0  0  0  0           0  0  0
    1.5039   -5.1694    0.0000 C   0  0  0  0  0  0           0  0  0
    2.2203   -4.7560    0.0000 C   0  0  0  0  0  0           0  0  0
    2.2175   -3.9255    0.0000 C   0  0  0  0  0  0           0  0  0
    1.5021   -3.5164    0.0000 N   0  0  0  0  0  0           0  0  0
    3.6500   -3.1083    0.0000 C   0  0  0  0  0  0           0  0  0
    5.7966   -1.8713    0.0000 C   0  0  0  0  0  0           0  0  0
    5.7955   -2.6987    0.0000 C   0  0  0  0  0  0           0  0  0
    6.5103   -3.1116    0.0000 C   0  0  0  0  0  0           0  0  0
    7.2267   -2.6982    0.0000 C   0  0  0  0  0  0           0  0  0
    7.2239   -1.8677    0.0000 C   0  0  0  0  0  0           0  0  0
    6.5085   -1.4586    0.0000 C   0  0  0  0  0  0           0  0  0
    4.3694   -1.8750    0.0000 C   0  0  0  0  0  0           0  0  0
    4.3682   -2.7023    0.0000 C   0  0  0  0  0  0           0  0  0
    5.0831   -3.1152    0.0000 C   0  0  0  0  0  0           0  0  0
    5.0813   -1.4622    0.0000 C   0  0  0  0  0  0           0  0  0
    7.9333   -1.4500    0.0000 C   0  0  0  0  0  0           0  0  0
    8.6458   -1.8625    0.0000 N   0  0  0  0  0  0           0  0  0
    7.9292   -0.6250    0.0000 N   0  0  0  0  0  0           0  0  0
    2.9333   -3.5167    0.0000 C   0  0  0  0  0  0           0  0  0
  5  6  2  0     0  0
 11 12  1  0     0  0
  6  1  1  0     0  0
 12 13  2  0     0  0
 13  8  1  0     0  0
  1  2  2  0     0  0
  3  4  2  0     0  0
 14 15  1  0     0  0
 15 16  2  0     0  0
 16  9  1  0     0  0
  8  9  2  0     0  0
  8 17  1  0     0  0
 17 14  2  0     0  0
  4  5  1  0     0  0
 12 18  1  0     0  0
  9 10  1  0     0  0
 18 19  1  0     0  0
  2  3  1  0     0  0
 18 20  2  0     0  0
 15  7  1  0     0  0
 10 11  2  0     0  0
  7 21  3  0     0  0
 21  5  1  0     0  0
M  END
>  <prID>
712

>  <IDDB>
214704

>  <pIC50_HIV_Integrase>
3.522878745

>  <Q>
0.530234926

>  <Activity_Integrase>
Inactive_Integrase

NA
NA
NA
NA
$$$$

  Accelrys05311914302D 1   1.00000     0.00000     0

 22 24  0     0  0            999 V2000
    1.8069   -4.6375    0.0000 C   0  0  0  0  0  0           0  0  0
    1.8057   -5.4648    0.0000 C   0  0  0  0  0  0           0  0  0
    2.5206   -5.8777    0.0000 C   0  0  0  0  0  0           0  0  0
    3.2370   -5.4644    0.0000 C   0  0  0  0  0  0           0  0  0
    3.2341   -4.6338    0.0000 C   0  0  0  0  0  0           0  0  0
    2.5188   -4.2247    0.0000 C   0  0  0  0  0  0           0  0  0
    4.6667   -3.8167    0.0000 C   0  0  0  0  0  0           0  0  0
    6.8133   -2.5797    0.0000 C   0  0  0  0  0  0           0  0  0
    6.8122   -3.4070    0.0000 C   0  0  0  0  0  0           0  0  0
    7.5270   -3.8199    0.0000 C   0  0  0  0  0  0           0  0  0
    8.2434   -3.4066    0.0000 C   0  0  0  0  0  0           0  0  0
    8.2406   -2.5760    0.0000 C   0  0  0  0  0  0           0  0  0
    7.5252   -2.1669    0.0000 C   0  0  0  0  0  0           0  0  0
    5.3861   -2.5833    0.0000 C   0  0  0  0  0  0           0  0  0
    5.3849   -3.4107    0.0000 C   0  0  0  0  0  0           0  0  0
    6.0997   -3.8235    0.0000 C   0  0  0  0  0  0           0  0  0
    6.0979   -2.1705    0.0000 C   0  0  0  0  0  0           0  0  0
    8.9500   -2.1583    0.0000 C   0  0  0  0  0  0           0  0  0
    9.6625   -2.5708    0.0000 N   0  0  0  0  0  0           0  0  0
    8.9458   -1.3333    0.0000 N   0  0  0  0  0  0           0  0  0
    3.9500   -4.2250    0.0000 C   0  0  0  0  0  0           0  0  0
    3.9458   -5.8750    0.0000 O   0  0  0  0  0  0           0  0  0
 11 12  1  0     0  0
  6  1  1  0     0  0
 12 13  2  0     0  0
 13  8  1  0     0  0
  1  2  2  0     0  0
  3  4  2  0     0  0
 14 15  1  0     0  0
 15 16  2  0     0  0
 16  9  1  0     0  0
  8  9  2  0     0  0
  8 17  1  0     0  0
 17 14  2  0     0  0
  4  5  1  0     0  0
 12 18  1  0     0  0
  9 10  1  0     0  0
 18 19  1  0     0  0
  2  3  1  0     0  0
 18 20  2  0     0  0
 15  7  1  0     0  0
 10 11  2  0     0  0
  7 21  3  0     0  0
 21  5  1  0     0  0
  5  6  2  0     0  0
  4 22  1  0     0  0
M  END
>  <prID>
713

>  <IDDB>
214705

>  <pIC50_HIV_Integrase>
3.522878745

>  <Q>
0.066324249

>  <Activity_Integrase>
Inactive_Integrase

NA
NA
NA
NA
$$$$

  Accelrys05311914302D 1   1.00000     0.00000     0

 23 25  0     0  0            999 V2000
    1.8069   -4.6375    0.0000 C   0  0  0  0  0  0           0  0  0
    1.8057   -5.4648    0.0000 C   0  0  0  0  0  0           0  0  0
    2.5206   -5.8777    0.0000 C   0  0  0  0  0  0           0  0  0
    3.2370   -5.4644    0.0000 C   0  0  0  0  0  0           0  0  0
    3.2341   -4.6338    0.0000 C   0  0  0  0  0  0           0  0  0
    2.5188   -4.2247    0.0000 C   0  0  0  0  0  0           0  0  0
    4.6667   -3.8167    0.0000 C   0  0  0  0  0  0           0  0  0
    6.8133   -2.5797    0.0000 C   0  0  0  0  0  0           0  0  0
    6.8122   -3.4070    0.0000 C   0  0  0  0  0  0           0  0  0
    7.5270   -3.8199    0.0000 C   0  0  0  0  0  0           0  0  0
    8.2434   -3.4066    0.0000 C   0  0  0  0  0  0           0  0  0
    8.2406   -2.5760    0.0000 C   0  0  0  0  0  0           0  0  0
    7.5252   -2.1669    0.0000 C   0  0  0  0  0  0           0  0  0
    5.3861   -2.5833    0.0000 C   0  0  0  0  0  0           0  0  0
    5.3849   -3.4107    0.0000 C   0  0  0  0  0  0           0  0  0
    6.0997   -3.8235    0.0000 C   0  0  0  0  0  0           0  0  0
    6.0979   -2.1705    0.0000 C   0  0  0  0  0  0           0  0  0
    8.9500   -2.1583    0.0000 C   0  0  0  0  0  0           0  0  0
    9.6625   -2.5708    0.0000 N   0  0  0  0  0  0           0  0  0
    8.9458   -1.3333    0.0000 N   0  0  0  0  0  0           0  0  0
    3.9500   -4.2250    0.0000 C   0  0  0  0  0  0           0  0  0
    1.0875   -5.8708    0.0000 C   0  0  0  0  0  0           0  0  0
    0.3708   -5.4583    0.0000 N   0  0  0  0  0  0           0  0  0
  6  1  1  0     0  0
 12 13  2  0     0  0
 13  8  1  0     0  0
  1  2  2  0     0  0
  3  4  2  0     0  0
 14 15  1  0     0  0
 15 16  2  0     0  0
 16  9  1  0     0  0
  8  9  2  0     0  0
  8 17  1  0     0  0
 17 14  2  0     0  0
  4  5  1  0     0  0
 12 18  1  0     0  0
  9 10  1  0     0  0
 18 19  1  0     0  0
  2  3  1  0     0  0
 18 20  2  0     0  0
 15  7  1  0     0  0
 10 11  2  0     0  0
  7 21  3  0     0  0
 21  5  1  0     0  0
  5  6  2  0     0  0
  2 22  1  0     0  0
 11 12  1  0     0  0
 22 23  1  0     0  0
M  END
>  <prID>
714

>  <IDDB>
214706

>  <pIC50_HIV_Integrase>
3.522878745

>  <Q>
-0.527474113

>  <Activity_Integrase>
Inactive_Integrase

NA
NA
NA
NA
$$$$

  Accelrys05311914302D 1   1.00000     0.00000     0

 23 25  0     0  0            999 V2000
    1.8069   -4.6375    0.0000 C   0  0  0  0  0  0           0  0  0
    1.8057   -5.4648    0.0000 C   0  0  0  0  0  0           0  0  0
    2.5206   -5.8777    0.0000 C   0  0  0  0  0  0           0  0  0
    3.2370   -5.4644    0.0000 C   0  0  0  0  0  0           0  0  0
    3.2341   -4.6338    0.0000 C   0  0  0  0  0  0           0  0  0
    2.5188   -4.2247    0.0000 C   0  0  0  0  0  0           0  0  0
    4.6667   -3.8167    0.0000 C   0  0  0  0  0  0           0  0  0
    6.8133   -2.5797    0.0000 C   0  0  0  0  0  0           0  0  0
    6.8122   -3.4070    0.0000 C   0  0  0  0  0  0           0  0  0
    7.5270   -3.8199    0.0000 C   0  0  0  0  0  0           0  0  0
    8.2434   -3.4066    0.0000 C   0  0  0  0  0  0           0  0  0
    8.2406   -2.5760    0.0000 C   0  0  0  0  0  0           0  0  0
    7.5252   -2.1669    0.0000 C   0  0  0  0  0  0           0  0  0
    5.3861   -2.5833    0.0000 C   0  0  0  0  0  0           0  0  0
    5.3849   -3.4107    0.0000 C   0  0  0  0  0  0           0  0  0
    6.0997   -3.8235    0.0000 C   0  0  0  0  0  0           0  0  0
    6.0979   -2.1705    0.0000 C   0  0  0  0  0  0           0  0  0
    8.9500   -2.1583    0.0000 C   0  0  0  0  0  0           0  0  0
    9.6625   -2.5708    0.0000 N   0  0  0  0  0  0           0  0  0
    8.9458   -1.3333    0.0000 N   0  0  0  0  0  0           0  0  0
    3.9500   -4.2250    0.0000 C   0  0  0  0  0  0           0  0  0
    1.0875   -5.8708    0.0000 C   0  0  0  0  0  0           0  0  0
    0.3708   -5.4583    0.0000 O   0  0  0  0  0  0           0  0  0
  6  1  1  0     0  0
 12 13  2  0     0  0
 13  8  1  0     0  0
  1  2  2  0     0  0
  3  4  2  0     0  0
 14 15  1  0     0  0
 15 16  2  0     0  0
 16  9  1  0     0  0
  8  9  2  0     0  0
  8 17  1  0     0  0
 17 14  2  0     0  0
  4  5  1  0     0  0
 12 18  1  0     0  0
  9 10  1  0     0  0
 18 19  1  0     0  0
  2  3  1  0     0  0
 18 20  2  0     0  0
 15  7  1  0     0  0
 10 11  2  0     0  0
  7 21  3  0     0  0
 21  5  1  0     0  0
  5  6  2  0     0  0
  2 22  1  0     0  0
 11 12  1  0     0  0
 22 23  1  0     0  0
M  END
>  <prID>
715

>  <IDDB>
214707

>  <pIC50_HIV_Integrase>
5.494850022

>  <Q>
0.035735709

>  <Activity_Integrase>
Inactive_Integrase

NA
NA
NA
NA
$$$$

  Accelrys05311914302D 1   1.00000     0.00000     0

 25 27  0     0  0            999 V2000
    1.8069   -4.6375    0.0000 C   0  0  0  0  0  0           0  0  0
    1.8057   -5.4648    0.0000 C   0  0  0  0  0  0           0  0  0
    2.5206   -5.8777    0.0000 C   0  0  0  0  0  0           0  0  0
    3.2370   -5.4644    0.0000 C   0  0  0  0  0  0           0  0  0
    3.2341   -4.6338    0.0000 C   0  0  0  0  0  0           0  0  0
    2.5188   -4.2247    0.0000 C   0  0  0  0  0  0           0  0  0
    4.6667   -3.8167    0.0000 C   0  0  0  0  0  0           0  0  0
    6.8133   -2.5797    0.0000 C   0  0  0  0  0  0           0  0  0
    6.8122   -3.4070    0.0000 C   0  0  0  0  0  0           0  0  0
    7.5270   -3.8199    0.0000 C   0  0  0  0  0  0           0  0  0
    8.2434   -3.4066    0.0000 C   0  0  0  0  0  0           0  0  0
    8.2406   -2.5760    0.0000 C   0  0  0  0  0  0           0  0  0
    7.5252   -2.1669    0.0000 C   0  0  0  0  0  0           0  0  0
    5.3861   -2.5833    0.0000 C   0  0  0  0  0  0           0  0  0
    5.3849   -3.4107    0.0000 C   0  0  0  0  0  0           0  0  0
    6.0997   -3.8235    0.0000 C   0  0  0  0  0  0           0  0  0
    6.0979   -2.1705    0.0000 C   0  0  0  0  0  0           0  0  0
    8.9500   -2.1583    0.0000 C   0  0  0  0  0  0           0  0  0
    9.6625   -2.5708    0.0000 N   0  0  0  0  0  0           0  0  0
    8.9458   -1.3333    0.0000 N   0  0  0  0  0  0           0  0  0
    3.9500   -4.2250    0.0000 C   0  0  0  0  0  0           0  0  0
    1.0875   -5.8708    0.0000 C   0  0  3  0  0  0           0  0  0
    0.3708   -5.4583    0.0000 O   0  0  0  0  0  0           0  0  0
    1.0833   -6.6958    0.0000 C   0  0  0  0  0  0           0  0  0
    1.8375   -7.2125    0.0000 O   0  0  0  0  0  0           0  0  0
 13  8  1  0     0  0
  1  2  2  0     0  0
  3  4  2  0     0  0
 14 15  1  0     0  0
 15 16  2  0     0  0
 16  9  1  0     0  0
  8  9  2  0     0  0
  8 17  1  0     0  0
 17 14  2  0     0  0
  4  5  1  0     0  0
 12 18  1  0     0  0
  9 10  1  0     0  0
 18 19  1  0     0  0
  2  3  1  0     0  0
 18 20  2  0     0  0
 15  7  1  0     0  0
 10 11  2  0     0  0
  7 21  3  0     0  0
 21  5  1  0     0  0
  5  6  2  0     0  0
  2 22  1  0     0  0
 11 12  1  0     0  0
 22 23  1  0     0  0
  6  1  1  0     0  0
 22 24  1  0     0  0
 12 13  2  0     0  0
 24 25  1  0     0  0
M  END
>  <prID>
716

>  <IDDB>
214708

>  <pIC50_HIV_Integrase>
5.13076828

>  <Q>
-0.923096008

>  <Activity_Integrase>
Inactive_Integrase

NA
NA
NA
NA
$$$$

  Accelrys05311914302D 1   1.00000     0.00000     0

 29 32  0     0  0            999 V2000
   -1.7598   -3.4083    0.0000 C   0  0  0  0  0  0           0  0  0
   -1.7609   -4.2357    0.0000 C   0  0  0  0  0  0           0  0  0
   -1.0461   -4.6485    0.0000 C   0  0  0  0  0  0           0  0  0
   -0.3297   -4.2352    0.0000 C   0  0  0  0  0  0           0  0  0
   -0.3325   -3.4047    0.0000 C   0  0  0  0  0  0           0  0  0
   -1.0479   -2.9955    0.0000 C   0  0  0  0  0  0           0  0  0
    0.3819   -4.6416    0.0000 C   0  0  0  0  0  0           0  0  0
    1.0944   -4.2291    0.0000 O   0  0  0  0  0  0           0  0  0
    1.8069   -4.6375    0.0000 C   0  0  0  0  0  0           0  0  0
    1.8057   -5.4648    0.0000 C   0  0  0  0  0  0           0  0  0
    2.5206   -5.8777    0.0000 C   0  0  0  0  0  0           0  0  0
    3.2370   -5.4644    0.0000 C   0  0  0  0  0  0           0  0  0
    3.2341   -4.6338    0.0000 C   0  0  0  0  0  0           0  0  0
    2.5188   -4.2247    0.0000 C   0  0  0  0  0  0           0  0  0
    4.6667   -3.8167    0.0000 C   0  0  0  0  0  0           0  0  0
    6.8133   -2.5797    0.0000 C   0  0  0  0  0  0           0  0  0
    6.8122   -3.4070    0.0000 C   0  0  0  0  0  0           0  0  0
    7.5270   -3.8199    0.0000 C   0  0  0  0  0  0           0  0  0
    8.2434   -3.4066    0.0000 C   0  0  0  0  0  0           0  0  0
    8.2406   -2.5760    0.0000 C   0  0  0  0  0  0           0  0  0
    7.5252   -2.1669    0.0000 C   0  0  0  0  0  0           0  0  0
    5.3861   -2.5833    0.0000 C   0  0  0  0  0  0           0  0  0
    5.3849   -3.4107    0.0000 C   0  0  0  0  0  0           0  0  0
    6.0997   -3.8235    0.0000 C   0  0  0  0  0  0           0  0  0
    6.0979   -2.1705    0.0000 C   0  0  0  0  0  0           0  0  0
    8.9500   -2.1583    0.0000 C   0  0  0  0  0  0           0  0  0
    9.6625   -2.5708    0.0000 N   0  0  0  0  0  0           0  0  0
    8.9458   -1.3333    0.0000 N   0  0  0  0  0  0           0  0  0
    3.9500   -4.2250    0.0000 C   0  0  0  0  0  0           0  0  0
 14  9  1  0     0  0
  4  7  1  0     0  0
  3  4  2  0     0  0
  7  8  1  0     0  0
 16 17  2  0     0  0
 17 18  1  0     0  0
  8  9  1  0     0  0
 18 19  2  0     0  0
  4  5  1  0     0  0
 19 20  1  0     0  0
  9 10  2  0     0  0
 20 21  2  0     0  0
 21 16  1  0     0  0
  2  3  1  0     0  0
 10 11  1  0     0  0
 22 23  1  0     0  0
  5  6  2  0     0  0
 23 24  2  0     0  0
 24 17  1  0     0  0
 11 12  2  0     0  0
 16 25  1  0     0  0
 25 22  2  0     0  0
  6  1  1  0     0  0
 20 26  1  0     0  0
 12 13  1  0     0  0
 26 27  1  0     0  0
  1  2  2  0     0  0
 26 28  2  0     0  0
 23 15  1  0     0  0
 13 14  2  0     0  0
 15 29  3  0     0  0
 29 13  1  0     0  0
M  END
>  <prID>
717

>  <IDDB>
214709

>  <pIC50_HIV_Integrase>
5.677780705

>  <Q>
1.106724553

>  <Activity_Integrase>
Inactive_Integrase

NA
NA
NA
NA
$$$$

  Accelrys05311914302D 1   1.00000     0.00000     0

 31 35  0     0  0            999 V2000
    0.3236   -2.3416    0.0000 C   0  0  0  0  0  0           0  0  0
    0.3224   -3.1690    0.0000 C   0  0  0  0  0  0           0  0  0
    1.0372   -3.5819    0.0000 C   0  0  0  0  0  0           0  0  0
    1.7537   -3.1685    0.0000 C   0  0  0  0  0  0           0  0  0
    1.7508   -2.3380    0.0000 C   0  0  0  0  0  0           0  0  0
    1.0354   -1.9289    0.0000 C   0  0  0  0  0  0           0  0  0
    2.4652   -3.5750    0.0000 C   0  0  0  0  0  0           0  0  0
    2.4641   -4.4023    0.0000 C   0  0  0  0  0  0           0  0  0
    3.1789   -4.8152    0.0000 C   0  0  0  0  0  0           0  0  0
    3.8953   -4.4019    0.0000 C   0  0  0  0  0  0           0  0  0
    3.8925   -3.5713    0.0000 C   0  0  0  0  0  0           0  0  0
    3.1771   -3.1622    0.0000 C   0  0  0  0  0  0           0  0  0
    4.6122   -4.8152    0.0000 C   0  0  0  0  0  0           0  0  0
    5.3287   -4.4019    0.0000 C   0  0  0  0  0  0           0  0  0
    5.3258   -3.5713    0.0000 C   0  0  0  0  0  0           0  0  0
    4.6104   -3.1622    0.0000 C   0  0  0  0  0  0           0  0  0
    6.7583   -2.7542    0.0000 C   0  0  0  0  0  0           0  0  0
    8.9050   -1.5172    0.0000 C   0  0  0  0  0  0           0  0  0
    8.9038   -2.3445    0.0000 C   0  0  0  0  0  0           0  0  0
    9.6186   -2.7574    0.0000 C   0  0  0  0  0  0           0  0  0
   10.3351   -2.3441    0.0000 C   0  0  0  0  0  0           0  0  0
   10.3322   -1.5135    0.0000 C   0  0  0  0  0  0           0  0  0
    9.6168   -1.1044    0.0000 C   0  0  0  0  0  0           0  0  0
    7.4777   -1.5208    0.0000 C   0  0  0  0  0  0           0  0  0
    7.4766   -2.3482    0.0000 C   0  0  0  0  0  0           0  0  0
    8.1914   -2.7610    0.0000 C   0  0  0  0  0  0           0  0  0
    8.1896   -1.1080    0.0000 C   0  0  0  0  0  0           0  0  0
   11.0417   -1.0958    0.0000 C   0  0  0  0  0  0           0  0  0
   11.7542   -1.5083    0.0000 N   0  0  0  0  0  0           0  0  0
   11.0375   -0.2708    0.0000 N   0  0  0  0  0  0           0  0  0
    6.0417   -3.1625    0.0000 C   0  0  0  0  0  0           0  0  0
 14 15  1  0     0  0
  3  4  2  0     0  0
 15 16  2  0     0  0
 16 11  1  0     0  0
  7  8  2  0     0  0
  8  9  1  0     0  0
 18 19  2  0     0  0
  4  5  1  0     0  0
 19 20  1  0     0  0
  9 10  2  0     0  0
 20 21  2  0     0  0
  2  3  1  0     0  0
 21 22  1  0     0  0
 10 11  1  0     0  0
 22 23  2  0     0  0
 23 18  1  0     0  0
  5  6  2  0     0  0
 11 12  2  0     0  0
 24 25  1  0     0  0
 12  7  1  0     0  0
 25 26  2  0     0  0
 26 19  1  0     0  0
  6  1  1  0     0  0
 18 27  1  0     0  0
 27 24  2  0     0  0
 10 13  1  0     0  0
 22 28  1  0     0  0
  1  2  2  0     0  0
 28 29  1  0     0  0
 13 14  2  0     0  0
 28 30  2  0     0  0
 25 17  1  0     0  0
  4  7  1  0     0  0
 17 31  3  0     0  0
 31 15  1  0     0  0
M  END
>  <prID>
718

>  <IDDB>
214710

>  <pIC50_HIV_Integrase>
5.494850022

>  <Q>
1.991719201

>  <Activity_Integrase>
Inactive_Integrase

NA
NA
NA
NA
$$$$

  Accelrys05311914302D 1   1.00000     0.00000     0

 25 28  0     0  0            999 V2000
    2.4652   -3.5750    0.0000 C   0  0  0  0  0  0           0  0  0
    2.4641   -4.4023    0.0000 C   0  0  0  0  0  0           0  0  0
    3.1789   -4.8152    0.0000 C   0  0  0  0  0  0           0  0  0
    3.8953   -4.4019    0.0000 C   0  0  0  0  0  0           0  0  0
    3.8925   -3.5713    0.0000 C   0  0  0  0  0  0           0  0  0
    3.1771   -3.1622    0.0000 C   0  0  0  0  0  0           0  0  0
    4.6122   -4.8152    0.0000 C   0  0  0  0  0  0           0  0  0
    5.3287   -4.4019    0.0000 C   0  0  0  0  0  0           0  0  0
    5.3258   -3.5713    0.0000 C   0  0  0  0  0  0           0  0  0
    4.6104   -3.1622    0.0000 C   0  0  0  0  0  0           0  0  0
    6.7583   -2.7542    0.0000 C   0  0  0  0  0  0           0  0  0
    8.9050   -1.5172    0.0000 C   0  0  0  0  0  0           0  0  0
    8.9038   -2.3445    0.0000 C   0  0  0  0  0  0           0  0  0
    9.6186   -2.7574    0.0000 C   0  0  0  0  0  0           0  0  0
   10.3351   -2.3441    0.0000 C   0  0  0  0  0  0           0  0  0
   10.3322   -1.5135    0.0000 C   0  0  0  0  0  0           0  0  0
    9.6168   -1.1044    0.0000 C   0  0  0  0  0  0           0  0  0
    7.4777   -1.5208    0.0000 C   0  0  0  0  0  0           0  0  0
    7.4766   -2.3482    0.0000 C   0  0  0  0  0  0           0  0  0
    8.1914   -2.7610    0.0000 C   0  0  0  0  0  0           0  0  0
    8.1896   -1.1080    0.0000 C   0  0  0  0  0  0           0  0  0
   11.0417   -1.0958    0.0000 C   0  0  0  0  0  0           0  0  0
   11.7542   -1.5083    0.0000 N   0  0  0  0  0  0           0  0  0
   11.0375   -0.2708    0.0000 N   0  0  0  0  0  0           0  0  0
    6.0417   -3.1625    0.0000 C   0  0  0  0  0  0           0  0  0
 12 13  2  0     0  0
  1  2  2  0     0  0
 13 14  1  0     0  0
  4  7  1  0     0  0
 14 15  2  0     0  0
  3  4  2  0     0  0
 15 16  1  0     0  0
  7  8  2  0     0  0
 16 17  2  0     0  0
 17 12  1  0     0  0
  8  9  1  0     0  0
 18 19  1  0     0  0
  4  5  1  0     0  0
 19 20  2  0     0  0
 20 13  1  0     0  0
  9 10  2  0     0  0
 12 21  1  0     0  0
 21 18  2  0     0  0
 10  5  1  0     0  0
 16 22  1  0     0  0
  2  3  1  0     0  0
 22 23  1  0     0  0
  5  6  2  0     0  0
 22 24  2  0     0  0
 19 11  1  0     0  0
  6  1  1  0     0  0
 11 25  3  0     0  0
 25  9  1  0     0  0
M  END
>  <prID>
719

>  <IDDB>
214711

>  <pIC50_HIV_Integrase>
4.886056648

>  <Q>
1.313235984

>  <Activity_Integrase>
Inactive_Integrase

NA
NA
NA
NA
$$$$

  Accelrys05311914302D 1   1.00000     0.00000     0

 25 28  0     0  0            999 V2000
    2.4652   -3.5750    0.0000 C   0  0  0  0  0  0           0  0  0
    2.4641   -4.4023    0.0000 N   0  0  0  0  0  0           0  0  0
    3.1789   -4.8152    0.0000 C   0  0  0  0  0  0           0  0  0
    3.8953   -4.4019    0.0000 C   0  0  0  0  0  0           0  0  0
    3.8925   -3.5713    0.0000 C   0  0  0  0  0  0           0  0  0
    3.1771   -3.1622    0.0000 C   0  0  0  0  0  0           0  0  0
    4.6122   -4.8152    0.0000 C   0  0  0  0  0  0           0  0  0
    5.3287   -4.4019    0.0000 C   0  0  0  0  0  0           0  0  0
    5.3258   -3.5713    0.0000 C   0  0  0  0  0  0           0  0  0
    4.6104   -3.1622    0.0000 C   0  0  0  0  0  0           0  0  0
    6.7583   -2.7542    0.0000 C   0  0  0  0  0  0           0  0  0
    8.9050   -1.5172    0.0000 C   0  0  0  0  0  0           0  0  0
    8.9038   -2.3445    0.0000 C   0  0  0  0  0  0           0  0  0
    9.6186   -2.7574    0.0000 C   0  0  0  0  0  0           0  0  0
   10.3351   -2.3441    0.0000 C   0  0  0  0  0  0           0  0  0
   10.3322   -1.5135    0.0000 C   0  0  0  0  0  0           0  0  0
    9.6168   -1.1044    0.0000 C   0  0  0  0  0  0           0  0  0
    7.4777   -1.5208    0.0000 C   0  0  0  0  0  0           0  0  0
    7.4766   -2.3482    0.0000 C   0  0  0  0  0  0           0  0  0
    8.1914   -2.7610    0.0000 C   0  0  0  0  0  0           0  0  0
    8.1896   -1.1080    0.0000 C   0  0  0  0  0  0           0  0  0
   11.0417   -1.0958    0.0000 C   0  0  0  0  0  0           0  0  0
   11.7542   -1.5083    0.0000 N   0  0  0  0  0  0           0  0  0
   11.0375   -0.2708    0.0000 N   0  0  0  0  0  0           0  0  0
    6.0417   -3.1625    0.0000 C   0  0  0  0  0  0           0  0  0
 12 13  2  0     0  0
  1  2  1  0     0  0
 13 14  1  0     0  0
  4  7  1  0     0  0
 14 15  2  0     0  0
  3  4  1  0     0  0
 15 16  1  0     0  0
  7  8  2  0     0  0
 16 17  2  0     0  0
 17 12  1  0     0  0
  8  9  1  0     0  0
 18 19  1  0     0  0
  4  5  2  0     0  0
 19 20  2  0     0  0
 20 13  1  0     0  0
  9 10  2  0     0  0
 12 21  1  0     0  0
 21 18  2  0     0  0
 10  5  1  0     0  0
 16 22  1  0     0  0
  2  3  1  0     0  0
 22 23  1  0     0  0
  5  6  1  0     0  0
 22 24  2  0     0  0
 19 11  1  0     0  0
  6  1  1  0     0  0
 11 25  3  0     0  0
 25  9  1  0     0  0
M  END
>  <prID>
720

>  <IDDB>
214712

>  <pIC50_HIV_Integrase>
4.346787486

>  <Q>
-0.455273781

>  <Activity_Integrase>
Inactive_Integrase

NA
NA
NA
NA
$$$$

  Accelrys05311914302D 1   1.00000     0.00000     0

 33 36  0     0  0            999 V2000
   -1.5417   -4.2125    0.0000 C   0  0  0  0  0  0           0  0  0
   -0.7167   -4.2125    0.0000 C   0  0  0  0  0  0           0  0  0
   -0.4599   -3.4284    0.0000 C   0  0  3  0  0  0           0  0  0
   -1.1292   -2.9417    0.0000 C   0  0  0  0  0  0           0  0  0
   -1.7942   -3.4284    0.0000 C   0  0  0  0  0  0           0  0  0
    0.2527   -3.0125    0.0000 O   0  0  0  0  0  0           0  0  0
    0.9652   -3.4250    0.0000 C   0  0  0  0  0  0           0  0  0
    0.9641   -4.2523    0.0000 C   0  0  0  0  0  0           0  0  0
    1.6789   -4.6652    0.0000 C   0  0  0  0  0  0           0  0  0
    2.3953   -4.2519    0.0000 C   0  0  0  0  0  0           0  0  0
    2.3925   -3.4213    0.0000 C   0  0  0  0  0  0           0  0  0
    1.6771   -3.0122    0.0000 C   0  0  0  0  0  0           0  0  0
    3.8292   -3.4250    0.0000 C   0  0  0  0  0  0           0  0  0
    5.9758   -2.1880    0.0000 C   0  0  0  0  0  0           0  0  0
    5.9747   -3.0154    0.0000 C   0  0  0  0  0  0           0  0  0
    6.6895   -3.4282    0.0000 C   0  0  0  0  0  0           0  0  0
    7.4059   -3.0149    0.0000 C   0  0  0  0  0  0           0  0  0
    7.4031   -2.1844    0.0000 C   0  0  0  0  0  0           0  0  0
    6.6877   -1.7752    0.0000 C   0  0  0  0  0  0           0  0  0
    4.5486   -2.1916    0.0000 C   0  0  0  0  0  0           0  0  0
    4.5474   -3.0190    0.0000 C   0  0  0  0  0  0           0  0  0
    5.2622   -3.4319    0.0000 C   0  0  0  0  0  0           0  0  0
    5.2604   -1.7789    0.0000 C   0  0  0  0  0  0           0  0  0
    8.1125   -1.7667    0.0000 C   0  0  0  0  0  0           0  0  0
    8.8250   -2.1792    0.0000 N   0  0  0  0  0  0           0  0  0
    8.1083   -0.9417    0.0000 N   0  0  0  0  0  0           0  0  0
    5.2542   -0.9500    0.0000 C   0  0  0  0  0  0           0  0  0
    5.9667   -0.5333    0.0000 C   0  0  0  0  0  0           0  0  0
    5.9625    0.2917    0.0000 C   0  0  3  0  0  0           0  0  0
    6.6750    0.7083    0.0000 C   0  0  0  0  0  0           0  0  0
    5.2458    0.7042    0.0000 C   0  0  0  0  0  0           0  0  0
    3.1125   -3.0125    0.0000 N   0  0  0  0  0  0           0  0  0
    3.8250   -4.2500    0.0000 O   0  0  0  0  0  0           0  0  0
 16 17  2  0     0  0
  3  4  1  0     0  0
 17 18  1  0     0  0
  8  9  1  0     0  0
 18 19  2  0     0  0
 19 14  1  0     0  0
  4  5  1  0     0  0
  9 10  2  0     0  0
 20 21  1  0     0  0
  5  1  1  0     0  0
 21 22  2  0     0  0
 22 15  1  0     0  0
 10 11  1  0     0  0
 14 23  1  0     0  0
 23 20  2  0     0  0
  1  2  1  0     0  0
 18 24  1  0     0  0
 11 12  2  0     0  0
 24 25  1  0     0  0
 12  7  1  0     0  0
 24 26  2  0     0  0
 21 13  1  0     0  0
  3  6  1  0     0  0
 23 27  1  0     0  0
 27 28  2  0     0  0
  6  7  1  0     0  0
 28 29  1  0     0  0
 14 15  2  0     0  0
 29 30  1  0     0  0
  2  3  1  0     0  0
 29 31  1  0     0  0
 15 16  1  0     0  0
 13 32  1  0     0  0
  7  8  2  0     0  0
 13 33  2  0     0  0
 32 11  1  0     0  0
M  END
>  <prID>
721

>  <IDDB>
214713

>  <pIC50_HIV_Integrase>
5.585026652

>  <Q>
-3.093584678

>  <Activity_Integrase>
Inactive_Integrase

NA
NA
NA
NA
$$$$

  Accelrys05311914302D 1   1.00000     0.00000     0

 29 32  0     0  0            999 V2000
   -1.5417   -4.2125    0.0000 C   0  0  0  0  0  0           0  0  0
   -0.7167   -4.2125    0.0000 C   0  0  0  0  0  0           0  0  0
   -0.4599   -3.4284    0.0000 C   0  0  3  0  0  0           0  0  0
   -1.1292   -2.9417    0.0000 C   0  0  0  0  0  0           0  0  0
   -1.7942   -3.4284    0.0000 C   0  0  0  0  0  0           0  0  0
    0.2527   -3.0125    0.0000 O   0  0  0  0  0  0           0  0  0
    0.9652   -3.4250    0.0000 C   0  0  0  0  0  0           0  0  0
    0.9641   -4.2523    0.0000 C   0  0  0  0  0  0           0  0  0
    1.6789   -4.6652    0.0000 C   0  0  0  0  0  0           0  0  0
    2.3953   -4.2519    0.0000 C   0  0  0  0  0  0           0  0  0
    2.3925   -3.4213    0.0000 C   0  0  0  0  0  0           0  0  0
    1.6771   -3.0122    0.0000 C   0  0  0  0  0  0           0  0  0
    3.8292   -3.4250    0.0000 C   0  0  0  0  0  0           0  0  0
    5.9758   -2.1880    0.0000 C   0  0  0  0  0  0           0  0  0
    5.9747   -3.0154    0.0000 C   0  0  0  0  0  0           0  0  0
    6.6895   -3.4282    0.0000 C   0  0  0  0  0  0           0  0  0
    7.4059   -3.0149    0.0000 C   0  0  0  0  0  0           0  0  0
    7.4031   -2.1844    0.0000 C   0  0  0  0  0  0           0  0  0
    6.6877   -1.7752    0.0000 C   0  0  0  0  0  0           0  0  0
    4.5486   -2.1916    0.0000 C   0  0  0  0  0  0           0  0  0
    4.5474   -3.0190    0.0000 C   0  0  0  0  0  0           0  0  0
    5.2622   -3.4319    0.0000 C   0  0  0  0  0  0           0  0  0
    5.2604   -1.7789    0.0000 C   0  0  0  0  0  0           0  0  0
    8.1125   -1.7667    0.0000 C   0  0  0  0  0  0           0  0  0
    8.8250   -2.1792    0.0000 N   0  0  0  0  0  0           0  0  0
    8.1083   -0.9417    0.0000 N   0  0  0  0  0  0           0  0  0
    5.2542   -0.9500    0.0000 Br  0  0  0  0  0  0           0  0  0
    3.1125   -3.0125    0.0000 N   0  0  0  0  0  0           0  0  0
    3.8250   -4.2500    0.0000 O   0  0  0  0  0  0           0  0  0
 14 15  2  0     0  0
  2  3  1  0     0  0
 15 16  1  0     0  0
  7  8  2  0     0  0
 16 17  2  0     0  0
  3  4  1  0     0  0
 17 18  1  0     0  0
  8  9  1  0     0  0
 18 19  2  0     0  0
 19 14  1  0     0  0
  4  5  1  0     0  0
  9 10  2  0     0  0
 20 21  1  0     0  0
  5  1  1  0     0  0
 21 22  2  0     0  0
 22 15  1  0     0  0
 10 11  1  0     0  0
 14 23  1  0     0  0
 23 20  2  0     0  0
  1  2  1  0     0  0
 18 24  1  0     0  0
 11 12  2  0     0  0
 24 25  1  0     0  0
 12  7  1  0     0  0
 24 26  2  0     0  0
 21 13  1  0     0  0
  3  6  1  0     0  0
 23 27  1  0     0  0
 13 28  1  0     0  0
  6  7  1  0     0  0
 13 29  2  0     0  0
 28 11  1  0     0  0
M  END
>  <prID>
722

>  <IDDB>
214714

>  <pIC50_HIV_Integrase>
4.806875402

>  <Q>
-2.971723358

>  <Activity_Integrase>
Inactive_Integrase

NA
NA
NA
NA
$$$$

  Accelrys05311914302D 1   1.00000     0.00000     0

 28 31  0     0  0            999 V2000
   -1.5417   -4.2125    0.0000 C   0  0  0  0  0  0           0  0  0
   -0.7167   -4.2125    0.0000 C   0  0  0  0  0  0           0  0  0
   -0.4599   -3.4284    0.0000 C   0  0  3  0  0  0           0  0  0
   -1.1292   -2.9417    0.0000 C   0  0  0  0  0  0           0  0  0
   -1.7942   -3.4284    0.0000 C   0  0  0  0  0  0           0  0  0
    0.2527   -3.0125    0.0000 O   0  0  0  0  0  0           0  0  0
    0.9652   -3.4250    0.0000 C   0  0  0  0  0  0           0  0  0
    0.9641   -4.2523    0.0000 C   0  0  0  0  0  0           0  0  0
    1.6789   -4.6652    0.0000 C   0  0  0  0  0  0           0  0  0
    2.3953   -4.2519    0.0000 C   0  0  0  0  0  0           0  0  0
    2.3925   -3.4213    0.0000 C   0  0  0  0  0  0           0  0  0
    1.6771   -3.0122    0.0000 C   0  0  0  0  0  0           0  0  0
    3.8292   -3.4250    0.0000 C   0  0  0  0  0  0           0  0  0
    5.9758   -2.1880    0.0000 C   0  0  0  0  0  0           0  0  0
    5.9747   -3.0154    0.0000 C   0  0  0  0  0  0           0  0  0
    6.6895   -3.4282    0.0000 C   0  0  0  0  0  0           0  0  0
    7.4059   -3.0149    0.0000 C   0  0  0  0  0  0           0  0  0
    7.4031   -2.1844    0.0000 C   0  0  0  0  0  0           0  0  0
    6.6877   -1.7752    0.0000 C   0  0  0  0  0  0           0  0  0
    4.5486   -2.1916    0.0000 C   0  0  0  0  0  0           0  0  0
    4.5474   -3.0190    0.0000 C   0  0  0  0  0  0           0  0  0
    5.2622   -3.4319    0.0000 C   0  0  0  0  0  0           0  0  0
    5.2604   -1.7789    0.0000 C   0  0  0  0  0  0           0  0  0
    8.1125   -1.7667    0.0000 C   0  0  0  0  0  0           0  0  0
    8.8250   -2.1792    0.0000 N   0  0  0  0  0  0           0  0  0
    8.1083   -0.9417    0.0000 N   0  0  0  0  0  0           0  0  0
    3.1125   -3.0125    0.0000 N   0  0  0  0  0  0           0  0  0
    3.8250   -4.2500    0.0000 O   0  0  0  0  0  0           0  0  0
  6  7  1  0     0  0
 14 15  2  0     0  0
  2  3  1  0     0  0
 15 16  1  0     0  0
  7  8  2  0     0  0
 16 17  2  0     0  0
  3  4  1  0     0  0
 17 18  1  0     0  0
  8  9  1  0     0  0
 18 19  2  0     0  0
 19 14  1  0     0  0
  4  5  1  0     0  0
  9 10  2  0     0  0
 20 21  1  0     0  0
  5  1  1  0     0  0
 21 22  2  0     0  0
 22 15  1  0     0  0
 10 11  1  0     0  0
 14 23  1  0     0  0
 23 20  2  0     0  0
  1  2  1  0     0  0
 18 24  1  0     0  0
 11 12  2  0     0  0
 24 25  1  0     0  0
 12  7  1  0     0  0
 24 26  2  0     0  0
 21 13  1  0     0  0
  3  6  1  0     0  0
 13 27  1  0     0  0
 13 28  2  0     0  0
 27 11  1  0     0  0
M  END
>  <prID>
723

>  <IDDB>
214715

>  <pIC50_HIV_Integrase>
4.610833916

>  <Q>
-2.930377071

>  <Activity_Integrase>
Inactive_Integrase

NA
NA
NA
NA
$$$$

  Accelrys05311914302D 1   1.00000     0.00000     0

 37 41  0     0  0            999 V2000
    2.2607   -2.7487    0.0000 C   0  0  0  0  0  0           0  0  0
    2.2596   -3.5760    0.0000 C   0  0  0  0  0  0           0  0  0
    2.9744   -3.9889    0.0000 C   0  0  0  0  0  0           0  0  0
    3.6908   -3.5755    0.0000 C   0  0  0  0  0  0           0  0  0
    3.6880   -2.7450    0.0000 C   0  0  0  0  0  0           0  0  0
    2.9726   -2.3359    0.0000 C   0  0  0  0  0  0           0  0  0
    0.8335   -2.7523    0.0000 C   0  0  0  0  0  0           0  0  0
    0.8323   -3.5797    0.0000 C   0  0  0  0  0  0           0  0  0
    1.5471   -3.9925    0.0000 C   0  0  0  0  0  0           0  0  0
    1.5453   -2.3395    0.0000 C   0  0  0  0  0  0           0  0  0
    4.3974   -2.3273    0.0000 C   0  0  0  0  0  0           0  0  0
    6.5388   -0.2562    0.0000 C   0  0  0  0  0  0           0  0  0
    6.5377   -1.0836    0.0000 C   0  0  0  0  0  0           0  0  0
    7.2525   -1.4964    0.0000 C   0  0  0  0  0  0           0  0  0
    7.9689   -1.0831    0.0000 O   0  0  0  0  0  0           0  0  0
    7.9661   -0.2526    0.0000 C   0  0  2  0  0  0           0  0  0
    7.2507    0.1566    0.0000 C   0  0  0  0  0  0           0  0  0
    5.8258   -1.4963    0.0000 C   0  0  0  0  0  0           0  0  0
    5.8247   -2.3237    0.0000 C   0  0  0  0  0  0           0  0  0
    6.5395   -2.7366    0.0000 C   0  0  0  0  0  0           0  0  0
    7.2559   -2.3232    0.0000 C   0  0  0  0  0  0           0  0  0
    4.3986   -1.5000    0.0000 C   0  0  0  0  0  0           0  0  0
    5.1122   -2.7402    0.0000 C   0  0  0  0  0  0           0  0  0
    5.1104   -1.0872    0.0000 C   0  0  0  0  0  0           0  0  0
    2.9667   -1.5083    0.0000 O   0  0  0  0  0  0           0  0  0
    2.9667   -4.8125    0.0000 O   0  0  0  0  0  0           0  0  0
    4.4000   -3.9875    0.0000 Cl  0  0  0  0  0  0           0  0  0
    3.6792   -1.0833    0.0000 O   0  0  0  0  0  0           0  0  0
    5.1042   -0.2583    0.0000 O   0  0  0  0  0  0           0  0  0
    5.1042   -3.5625    0.0000 O   0  0  0  0  0  0           0  0  0
    8.7583   -0.4625    0.0000 C   0  0  0  0  0  0           0  0  0
    7.9583    0.5750    0.0000 C   0  0  0  0  0  0           0  0  0
    7.2417    0.9875    0.0000 C   0  0  0  0  0  0           0  0  0
    6.5250    0.5792    0.0000 C   0  0  0  0  0  0           0  0  0
    5.8083    0.9917    0.0000 C   0  0  0  0  0  0           0  0  0
    5.0917    0.5833    0.0000 C   0  0  0  0  0  0           0  0  0
    5.8042    1.8167    0.0000 C   0  0  0  0  0  0           0  0  0
  9  2  1  0     0  0
 18 19  2  0     0  0
  4  5  2  0     0  0
 19 20  1  0     0  0
  1 10  1  0     0  0
 20 21  2  0     0  0
 21 14  1  0     0  0
 13 18  1  0     0  0
 10  7  2  0     0  0
 22 11  2  0     0  0
  2  3  1  0     0  0
 11 23  1  0     0  0
 23 19  1  0     0  0
  5 11  1  0     0  0
 18 24  1  0     0  0
 24 22  1  0     0  0
  5  6  1  0     0  0
  6 25  2  0     0  0
  6  1  1  0     0  0
  3 26  2  0     0  0
 12 13  1  0     0  0
  4 27  1  0     0  0
  1  2  2  0     0  0
 22 28  1  0     0  0
 13 14  2  0     0  0
 24 29  2  0     0  0
  3  4  1  0     0  0
 23 30  2  0     0  0
 14 15  1  0     0  0
 16 31  1  6     0  0
  7  8  1  0     0  0
 16 32  1  1     0  0
 15 16  1  0     0  0
 32 33  1  0     0  0
 33 34  1  0     0  0
 16 17  1  0     0  0
 34 35  2  0     0  0
 17 12  2  0     0  0
 35 36  1  0     0  0
  8  9  2  0     0  0
 35 37  1  0     0  0
M  END
>  <prID>
724

>  <IDDB>
214779

>  <pIC50_HIV_Integrase>
4.686137897

>  <Q>
-1.587675642

>  <Activity_Integrase>
Inactive_Integrase

NA
NA
NA
NA
$$$$

  Accelrys05311914302D 1   1.00000     0.00000     0

 23 25  0     0  0            999 V2000
    4.0244   -1.0780    0.0000 C   0  0  0  0  0  0           0  0  0
    4.8068   -1.3399    0.0000 C   0  0  0  0  0  0           0  0  0
    5.2992   -0.6778    0.0000 C   0  0  0  0  0  0           0  0  0
    4.8190   -0.0038    0.0000 C   0  0  0  0  0  0           0  0  0
    4.0339   -0.2543    0.0000 N   0  0  3  0  0  0           0  0  0
    2.6000   -0.2500    0.0000 C   0  0  0  0  0  0           0  0  0
    2.6000   -1.0750    0.0000 N   0  0  3  0  0  0           0  0  0
    3.3120   -1.4833    0.0000 C   0  0  0  0  0  0           0  0  0
    3.3120    0.1667    0.0000 C   0  0  0  0  0  0           0  0  0
   -0.2514   -0.2541    0.0000 C   0  0  0  0  0  0           0  0  0
   -0.2526   -1.0815    0.0000 C   0  0  0  0  0  0           0  0  0
    0.4622   -1.4944    0.0000 C   0  0  0  0  0  0           0  0  0
    1.1787   -1.0810    0.0000 C   0  0  0  0  0  0           0  0  0
    1.1758   -0.2505    0.0000 C   0  0  0  0  0  0           0  0  0
    0.4604    0.1586    0.0000 C   0  0  0  0  0  0           0  0  0
    1.8875   -1.4917    0.0000 C   0  0  0  0  0  0           0  0  0
    3.3042   -2.3083    0.0000 O   0  0  0  0  0  0           0  0  0
    5.0167   -2.1333    0.0000 O   0  0  0  0  0  0           0  0  0
    6.1208   -0.6750    0.0000 C   0  0  0  0  0  0           0  0  0
    6.5292    0.0417    0.0000 O   0  0  0  0  0  0           0  0  0
    7.3542    0.0417    0.0000 C   0  0  0  0  0  0           0  0  0
    7.7625    0.7583    0.0000 C   0  0  0  0  0  0           0  0  0
    6.5292   -1.3875    0.0000 O   0  0  0  0  0  0           0  0  0
  6  7  1  0     0  0
 11 12  1  0     0  0
  1  2  2  0     0  0
 12 13  2  0     0  0
 13 14  1  0     0  0
  2  3  1  0     0  0
 14 15  2  0     0  0
 15 10  1  0     0  0
  3  4  2  0     0  0
 13 16  1  0     0  0
 16  7  1  0     0  0
  6  9  1  0     0  0
  8 17  2  0     0  0
  7  8  1  0     0  0
  2 18  1  0     0  0
  8  1  1  0     0  0
  3 19  1  0     0  0
  5  9  1  0     0  0
 19 20  1  0     0  0
  4  5  1  0     0  0
 20 21  1  0     0  0
  5  1  1  0     0  0
 21 22  1  0     0  0
 10 11  2  0     0  0
 19 23  2  0     0  0
M  END
>  <prID>
725

>  <IDDB>
214782

>  <pIC50_HIV_Integrase>
6.657577319

>  <Q>
-0.649123797

>  <Activity_Integrase>
Active_Integrase

NA
NA
NA
NA
$$$$

  Accelrys05311914302D 1   1.00000     0.00000     0

 21 23  0     0  0            999 V2000
    4.0244   -1.0780    0.0000 C   0  0  0  0  0  0           0  0  0
    4.8068   -1.3399    0.0000 C   0  0  0  0  0  0           0  0  0
    5.2992   -0.6778    0.0000 C   0  0  0  0  0  0           0  0  0
    4.8190   -0.0038    0.0000 C   0  0  0  0  0  0           0  0  0
    4.0339   -0.2543    0.0000 N   0  0  3  0  0  0           0  0  0
    2.6000   -0.2500    0.0000 C   0  0  0  0  0  0           0  0  0
    2.6000   -1.0750    0.0000 N   0  0  3  0  0  0           0  0  0
    3.3120   -1.4833    0.0000 C   0  0  0  0  0  0           0  0  0
    3.3120    0.1667    0.0000 C   0  0  0  0  0  0           0  0  0
   -0.2514   -0.2541    0.0000 C   0  0  0  0  0  0           0  0  0
   -0.2526   -1.0815    0.0000 C   0  0  0  0  0  0           0  0  0
    0.4622   -1.4944    0.0000 C   0  0  0  0  0  0           0  0  0
    1.1787   -1.0810    0.0000 C   0  0  0  0  0  0           0  0  0
    1.1758   -0.2505    0.0000 C   0  0  0  0  0  0           0  0  0
    0.4604    0.1586    0.0000 C   0  0  0  0  0  0           0  0  0
    1.8875   -1.4917    0.0000 C   0  0  0  0  0  0           0  0  0
    3.3042   -2.3083    0.0000 O   0  0  0  0  0  0           0  0  0
    5.0167   -2.1333    0.0000 O   0  0  0  0  0  0           0  0  0
    6.1208   -0.6750    0.0000 C   0  0  0  0  0  0           0  0  0
    6.5292    0.0417    0.0000 O   0  0  0  0  0  0           0  0  0
    6.5292   -1.3875    0.0000 O   0  0  0  0  0  0           0  0  0
  5  1  1  0     0  0
 10 11  2  0     0  0
  6  7  1  0     0  0
 11 12  1  0     0  0
  1  2  2  0     0  0
 12 13  2  0     0  0
 13 14  1  0     0  0
  2  3  1  0     0  0
 14 15  2  0     0  0
 15 10  1  0     0  0
  3  4  2  0     0  0
 13 16  1  0     0  0
 16  7  1  0     0  0
  6  9  1  0     0  0
  8 17  2  0     0  0
  7  8  1  0     0  0
  2 18  1  0     0  0
  8  1  1  0     0  0
  3 19  1  0     0  0
  5  9  1  0     0  0
 19 20  1  0     0  0
  4  5  1  0     0  0
 19 21  2  0     0  0
M  END
>  <prID>
726

>  <IDDB>
214783

>  <pIC50_HIV_Integrase>
7.096910013

>  <Q>
-0.778158298

>  <Activity_Integrase>
Active_Integrase

NA
NA
NA
NA
$$$$

  Accelrys05311914302D 1   1.00000     0.00000     0

 24 26  0     0  0            999 V2000
    6.7619   -3.8238    0.0000 C   0  0  0  0  0  0           0  0  0
    7.5443   -4.0857    0.0000 C   0  0  0  0  0  0           0  0  0
    8.0367   -3.4236    0.0000 C   0  0  0  0  0  0           0  0  0
    7.5565   -2.7496    0.0000 C   0  0  0  0  0  0           0  0  0
    6.7714   -3.0001    0.0000 N   0  0  3  0  0  0           0  0  0
    5.3375   -2.9958    0.0000 C   0  0  0  0  0  0           0  0  0
    5.3375   -3.8208    0.0000 N   0  0  3  0  0  0           0  0  0
    6.0495   -4.2292    0.0000 C   0  0  0  0  0  0           0  0  0
    6.0495   -2.5792    0.0000 C   0  0  0  0  0  0           0  0  0
    2.4861   -3.0000    0.0000 C   0  0  0  0  0  0           0  0  0
    2.4849   -3.8273    0.0000 C   0  0  0  0  0  0           0  0  0
    3.1997   -4.2402    0.0000 C   0  0  0  0  0  0           0  0  0
    3.9162   -3.8269    0.0000 C   0  0  0  0  0  0           0  0  0
    3.9133   -2.9963    0.0000 C   0  0  0  0  0  0           0  0  0
    3.1979   -2.5872    0.0000 C   0  0  0  0  0  0           0  0  0
    4.6250   -4.2375    0.0000 C   0  0  0  0  0  0           0  0  0
    6.0417   -5.0542    0.0000 O   0  0  0  0  0  0           0  0  0
    7.7542   -4.8792    0.0000 O   0  0  0  0  0  0           0  0  0
    8.8583   -3.4208    0.0000 C   0  0  0  0  0  0           0  0  0
    9.2667   -2.7042    0.0000 O   0  0  0  0  0  0           0  0  0
   10.0917   -2.7042    0.0000 C   0  0  0  0  0  0           0  0  0
   10.5000   -1.9875    0.0000 C   0  0  0  0  0  0           0  0  0
    9.2667   -4.1333    0.0000 O   0  0  0  0  0  0           0  0  0
    1.7667   -2.5833    0.0000 F   0  0  0  0  0  0           0  0  0
 11 12  1  0     0  0
  1  2  2  0     0  0
 12 13  2  0     0  0
 13 14  1  0     0  0
  2  3  1  0     0  0
 14 15  2  0     0  0
 15 10  1  0     0  0
  3  4  2  0     0  0
 13 16  1  0     0  0
 16  7  1  0     0  0
  6  9  1  0     0  0
  8 17  2  0     0  0
  7  8  1  0     0  0
  2 18  1  0     0  0
  8  1  1  0     0  0
  3 19  1  0     0  0
  5  9  1  0     0  0
 19 20  1  0     0  0
  4  5  1  0     0  0
 20 21  1  0     0  0
  5  1  1  0     0  0
 21 22  1  0     0  0
 10 11  2  0     0  0
 19 23  2  0     0  0
  6  7  1  0     0  0
 10 24  1  0     0  0
M  END
>  <prID>
727

>  <IDDB>
214784

>  <pIC50_HIV_Integrase>
7.397940009

>  <Q>
-3.140035125

>  <Activity_Integrase>
Active_Integrase

NA
NA
NA
NA
$$$$

  Accelrys05311914302D 1   1.00000     0.00000     0

 23 25  0     0  0            999 V2000
    6.7619   -3.8238    0.0000 C   0  0  0  0  0  0           0  0  0
    7.5443   -4.0857    0.0000 C   0  0  0  0  0  0           0  0  0
    8.0367   -3.4236    0.0000 C   0  0  0  0  0  0           0  0  0
    7.5565   -2.7496    0.0000 C   0  0  0  0  0  0           0  0  0
    6.7714   -3.0001    0.0000 N   0  0  3  0  0  0           0  0  0
    5.3375   -2.9958    0.0000 C   0  0  0  0  0  0           0  0  0
    5.3375   -3.8208    0.0000 N   0  0  3  0  0  0           0  0  0
    6.0495   -4.2292    0.0000 C   0  0  0  0  0  0           0  0  0
    6.0495   -2.5792    0.0000 C   0  0  0  0  0  0           0  0  0
    2.4861   -3.0000    0.0000 C   0  0  0  0  0  0           0  0  0
    2.4849   -3.8273    0.0000 C   0  0  0  0  0  0           0  0  0
    3.1997   -4.2402    0.0000 C   0  0  0  0  0  0           0  0  0
    3.9162   -3.8269    0.0000 C   0  0  0  0  0  0           0  0  0
    3.9133   -2.9963    0.0000 C   0  0  0  0  0  0           0  0  0
    3.1979   -2.5872    0.0000 C   0  0  0  0  0  0           0  0  0
    4.6250   -4.2375    0.0000 C   0  0  0  0  0  0           0  0  0
    6.0417   -5.0542    0.0000 O   0  0  0  0  0  0           0  0  0
    7.7542   -4.8792    0.0000 O   0  0  0  0  0  0           0  0  0
    8.8583   -3.4208    0.0000 C   0  0  0  0  0  0           0  0  0
    9.2667   -2.7042    0.0000 N   0  0  0  0  0  0           0  0  0
    9.2667   -4.1333    0.0000 O   0  0  0  0  0  0           0  0  0
    1.7667   -2.5833    0.0000 F   0  0  0  0  0  0           0  0  0
   10.0917   -2.7042    0.0000 C   0  0  0  0  0  0           0  0  0
  6  7  1  0     0  0
 11 12  1  0     0  0
  1  2  2  0     0  0
 12 13  2  0     0  0
 13 14  1  0     0  0
  2  3  1  0     0  0
 14 15  2  0     0  0
 15 10  1  0     0  0
  3  4  2  0     0  0
 13 16  1  0     0  0
 16  7  1  0     0  0
  6  9  1  0     0  0
  8 17  2  0     0  0
  7  8  1  0     0  0
  2 18  1  0     0  0
  8  1  1  0     0  0
  3 19  1  0     0  0
  5  9  1  0     0  0
 19 20  1  0     0  0
  4  5  1  0     0  0
 19 21  2  0     0  0
  5  1  1  0     0  0
 10 22  1  0     0  0
 10 11  2  0     0  0
 20 23  1  0     0  0
M  END
>  <prID>
728

>  <IDDB>
214786

>  <pIC50_HIV_Integrase>
7.096910013

>  <Q>
-2.980794688

>  <Activity_Integrase>
Active_Integrase

NA
NA
NA
NA
$$$$

  Accelrys05311914302D 1   1.00000     0.00000     0

 24 26  0     0  0            999 V2000
   10.0917   -2.7042    0.0000 C   0  0  0  0  0  0           0  0  0
   10.3947   -1.9668    0.0000 C   0  0  0  0  0  0           0  0  0
    6.7619   -3.8238    0.0000 C   0  0  0  0  0  0           0  0  0
    7.5443   -4.0857    0.0000 C   0  0  0  0  0  0           0  0  0
    8.0367   -3.4236    0.0000 C   0  0  0  0  0  0           0  0  0
    7.5565   -2.7496    0.0000 C   0  0  0  0  0  0           0  0  0
    6.7714   -3.0001    0.0000 N   0  0  3  0  0  0           0  0  0
    5.3375   -2.9958    0.0000 C   0  0  0  0  0  0           0  0  0
    5.3375   -3.8208    0.0000 N   0  0  3  0  0  0           0  0  0
    6.0495   -4.2292    0.0000 C   0  0  0  0  0  0           0  0  0
    6.0495   -2.5792    0.0000 C   0  0  0  0  0  0           0  0  0
    2.4861   -3.0000    0.0000 C   0  0  0  0  0  0           0  0  0
    2.4849   -3.8273    0.0000 C   0  0  0  0  0  0           0  0  0
    3.1997   -4.2402    0.0000 C   0  0  0  0  0  0           0  0  0
    3.9162   -3.8269    0.0000 C   0  0  0  0  0  0           0  0  0
    3.9133   -2.9963    0.0000 C   0  0  0  0  0  0           0  0  0
    3.1979   -2.5872    0.0000 C   0  0  0  0  0  0           0  0  0
    4.6250   -4.2375    0.0000 C   0  0  0  0  0  0           0  0  0
    6.0417   -5.0542    0.0000 O   0  0  0  0  0  0           0  0  0
    7.7542   -4.8792    0.0000 O   0  0  0  0  0  0           0  0  0
    8.8583   -3.4208    0.0000 C   0  0  0  0  0  0           0  0  0
    9.2667   -2.7042    0.0000 O   0  0  0  0  0  0           0  0  0
    9.2667   -4.1333    0.0000 O   0  0  0  0  0  0           0  0  0
    1.7667   -4.2333    0.0000 Cl  0  0  0  0  0  0           0  0  0
  6  7  1  0     0  0
 12 13  2  0     0  0
  7  3  1  0     0  0
 13 14  1  0     0  0
  8  9  1  0     0  0
 14 15  2  0     0  0
  3  4  2  0     0  0
 15 16  1  0     0  0
 16 17  2  0     0  0
 17 12  1  0     0  0
  1  2  1  0     0  0
 15 18  1  0     0  0
 18  9  1  0     0  0
  4  5  1  0     0  0
 10 19  2  0     0  0
  8 11  1  0     0  0
  4 20  1  0     0  0
  9 10  1  0     0  0
  5 21  1  0     0  0
 10  3  1  0     0  0
 21 22  1  0     0  0
  7 11  1  0     0  0
 21 23  2  0     0  0
 22  1  1  0     0  0
  5  6  2  0     0  0
 13 24  1  0     0  0
M  END
>  <prID>
729

>  <IDDB>
214789

>  <pIC50_HIV_Integrase>
7.522878745

>  <Q>
-1.597352604

>  <Activity_Integrase>
Active_Integrase

NA
NA
NA
NA
$$$$

  Accelrys05311914302D 1   1.00000     0.00000     0

 22 24  0     0  0            999 V2000
    6.7619   -3.8238    0.0000 C   0  0  0  0  0  0           0  0  0
    7.5443   -4.0857    0.0000 C   0  0  0  0  0  0           0  0  0
    8.0367   -3.4236    0.0000 C   0  0  0  0  0  0           0  0  0
    7.5565   -2.7496    0.0000 C   0  0  0  0  0  0           0  0  0
    6.7714   -3.0001    0.0000 N   0  0  3  0  0  0           0  0  0
    5.3375   -2.9958    0.0000 C   0  0  0  0  0  0           0  0  0
    5.3375   -3.8208    0.0000 N   0  0  3  0  0  0           0  0  0
    6.0495   -4.2292    0.0000 C   0  0  0  0  0  0           0  0  0
    6.0495   -2.5792    0.0000 C   0  0  0  0  0  0           0  0  0
    2.4861   -3.0000    0.0000 C   0  0  0  0  0  0           0  0  0
    2.4849   -3.8273    0.0000 C   0  0  0  0  0  0           0  0  0
    3.1997   -4.2402    0.0000 C   0  0  0  0  0  0           0  0  0
    3.9162   -3.8269    0.0000 C   0  0  0  0  0  0           0  0  0
    3.9133   -2.9963    0.0000 C   0  0  0  0  0  0           0  0  0
    3.1979   -2.5872    0.0000 C   0  0  0  0  0  0           0  0  0
    4.6250   -4.2375    0.0000 C   0  0  0  0  0  0           0  0  0
    6.0417   -5.0542    0.0000 O   0  0  0  0  0  0           0  0  0
    7.7542   -4.8792    0.0000 O   0  0  0  0  0  0           0  0  0
    8.8583   -3.4208    0.0000 C   0  0  0  0  0  0           0  0  0
    9.2667   -2.7042    0.0000 O   0  0  0  0  0  0           0  0  0
    9.2667   -4.1333    0.0000 O   0  0  0  0  0  0           0  0  0
    1.7667   -4.2333    0.0000 Cl  0  0  0  0  0  0           0  0  0
 10 11  2  0     0  0
  6  7  1  0     0  0
 11 12  1  0     0  0
  1  2  2  0     0  0
 12 13  2  0     0  0
 13 14  1  0     0  0
  2  3  1  0     0  0
 14 15  2  0     0  0
 15 10  1  0     0  0
  3  4  2  0     0  0
 13 16  1  0     0  0
 16  7  1  0     0  0
  6  9  1  0     0  0
  8 17  2  0     0  0
  7  8  1  0     0  0
  2 18  1  0     0  0
  8  1  1  0     0  0
  3 19  1  0     0  0
  5  9  1  0     0  0
 19 20  1  0     0  0
  4  5  1  0     0  0
 19 21  2  0     0  0
  5  1  1  0     0  0
 11 22  1  0     0  0
M  END
>  <prID>
730

>  <IDDB>
214790

>  <pIC50_HIV_Integrase>
8

>  <Q>
-1.726387105

>  <Activity_Integrase>
Active_Integrase

NA
NA
NA
NA
$$$$

  Accelrys05311914302D 1   1.00000     0.00000     0

 23 25  0     0  0            999 V2000
    8.0932   -2.1734    0.0000 C   0  0  0  0  0  0           0  0  0
    7.6798   -2.8874    0.0000 N   0  0  3  0  0  0           0  0  0
    8.0914   -3.5975    0.0000 C   0  0  0  0  0  0           0  0  0
    8.9122   -3.6009    0.0000 C   0  0  0  0  0  0           0  0  0
    9.3256   -2.8870    0.0000 N   0  0  3  0  0  0           0  0  0
    8.9182   -2.1696    0.0000 C   0  0  0  0  0  0           0  0  0
    6.7944   -3.8875    0.0000 C   0  0  0  0  0  0           0  0  0
    7.5511   -4.2163    0.0000 C   0  0  0  0  0  0           0  0  0
    6.7711   -3.1219    0.0000 C   0  0  0  0  0  0           0  0  0
    5.3375   -3.8208    0.0000 N   0  0  0  0  0  0           0  0  0
    6.0495   -4.2292    0.0000 C   0  0  0  0  0  0           0  0  0
    2.4861   -3.0000    0.0000 C   0  0  0  0  0  0           0  0  0
    2.4849   -3.8273    0.0000 C   0  0  0  0  0  0           0  0  0
    3.1997   -4.2402    0.0000 C   0  0  0  0  0  0           0  0  0
    3.9162   -3.8269    0.0000 C   0  0  0  0  0  0           0  0  0
    3.9133   -2.9963    0.0000 C   0  0  0  0  0  0           0  0  0
    3.1979   -2.5872    0.0000 C   0  0  0  0  0  0           0  0  0
    4.6250   -4.2375    0.0000 C   0  0  0  0  0  0           0  0  0
    6.0417   -5.0542    0.0000 O   0  0  0  0  0  0           0  0  0
    7.7746   -4.9958    0.0000 O   0  0  0  0  0  0           0  0  0
    1.7667   -2.5833    0.0000 F   0  0  0  0  0  0           0  0  0
   10.1761   -2.8720    0.0000 C   0  0  0  0  0  0           0  0  0
    9.3167   -4.3125    0.0000 O   0  0  0  0  0  0           0  0  0
 11  7  1  0     0  0
  4  5  1  0     0  0
  5  6  1  0     0  0
 12 13  2  0     0  0
  7  8  1  0     0  0
 13 14  1  0     0  0
 14 15  2  0     0  0
  1  2  1  0     0  0
 15 16  1  0     0  0
  1  6  1  0     0  0
 16 17  2  0     0  0
 17 12  1  0     0  0
  8  3  2  0     0  0
 15 18  1  0     0  0
 18 10  1  0     0  0
  2  9  1  0     0  0
 11 19  2  0     0  0
  9  7  2  0     0  0
  8 20  1  0     0  0
  2  3  1  0     0  0
 12 21  1  0     0  0
  3  4  1  0     0  0
  5 22  1  0     0  0
 10 11  1  0     0  0
  4 23  2  0     0  0
M  END
>  <prID>
731

>  <IDDB>
214791

>  <pIC50_HIV_Integrase>
6.397940009

>  <Q>
-2.948723301

>  <Activity_Integrase>
Active_Integrase

NA
NA
NA
NA
$$$$

  Accelrys05311914302D 1   1.00000     0.00000     0

 24 26  0     0  0            999 V2000
    7.8453   -3.5280    0.0000 C   0  0  0  0  0  0           0  0  0
    8.6276   -3.7899    0.0000 C   0  0  0  0  0  0           0  0  0
    9.1200   -3.1278    0.0000 C   0  0  0  0  0  0           0  0  0
    8.6398   -2.4538    0.0000 C   0  0  0  0  0  0           0  0  0
    7.8547   -2.7043    0.0000 N   0  0  3  0  0  0           0  0  0
    6.4208   -2.7000    0.0000 C   0  0  0  0  0  0           0  0  0
    6.4208   -3.5250    0.0000 N   0  0  3  0  0  0           0  0  0
    7.1329   -3.9333    0.0000 C   0  0  0  0  0  0           0  0  0
    7.1329   -2.2833    0.0000 C   0  0  0  0  0  0           0  0  0
    3.5694   -2.7041    0.0000 C   0  0  0  0  0  0           0  0  0
    3.5682   -3.5315    0.0000 C   0  0  0  0  0  0           0  0  0
    4.2831   -3.9444    0.0000 C   0  0  0  0  0  0           0  0  0
    4.9995   -3.5310    0.0000 C   0  0  0  0  0  0           0  0  0
    4.9966   -2.7005    0.0000 C   0  0  0  0  0  0           0  0  0
    4.2813   -2.2914    0.0000 C   0  0  0  0  0  0           0  0  0
    5.7083   -3.9417    0.0000 C   0  0  0  0  0  0           0  0  0
    7.1250   -4.7583    0.0000 O   0  0  0  0  0  0           0  0  0
    8.8375   -4.5833    0.0000 O   0  0  0  0  0  0           0  0  0
    9.9417   -3.1250    0.0000 C   0  0  0  0  0  0           0  0  0
   10.3500   -2.4083    0.0000 O   0  0  0  0  0  0           0  0  0
   10.3500   -3.8375    0.0000 O   0  0  0  0  0  0           0  0  0
    2.8500   -3.9375    0.0000 F   0  0  0  0  0  0           0  0  0
   11.1750   -2.4083    0.0000 C   0  0  0  0  0  0           0  0  0
   11.5833   -1.6917    0.0000 C   0  0  0  0  0  0           0  0  0
 11 12  1  0     0  0
  1  2  2  0     0  0
 12 13  2  0     0  0
 13 14  1  0     0  0
  2  3  1  0     0  0
 14 15  2  0     0  0
 15 10  1  0     0  0
  3  4  2  0     0  0
 13 16  1  0     0  0
 16  7  1  0     0  0
  6  9  1  0     0  0
  8 17  2  0     0  0
  7  8  1  0     0  0
  2 18  1  0     0  0
  8  1  1  0     0  0
  3 19  1  0     0  0
  5  9  1  0     0  0
 19 20  1  0     0  0
  4  5  1  0     0  0
 19 21  2  0     0  0
  5  1  1  0     0  0
 11 22  1  0     0  0
 10 11  2  0     0  0
 20 23  1  0     0  0
  6  7  1  0     0  0
 23 24  1  0     0  0
M  END
>  <prID>
732

>  <IDDB>
214792

>  <pIC50_HIV_Integrase>
6.958607315

>  <Q>
-3.149349695

>  <Activity_Integrase>
Active_Integrase

NA
NA
NA
NA
$$$$

  Accelrys05311914302D 1   1.00000     0.00000     0

 24 26  0     0  0            999 V2000
    7.8453   -3.5280    0.0000 C   0  0  0  0  0  0           0  0  0
    8.6276   -3.7899    0.0000 C   0  0  0  0  0  0           0  0  0
    9.1200   -3.1278    0.0000 C   0  0  0  0  0  0           0  0  0
    8.6398   -2.4538    0.0000 C   0  0  0  0  0  0           0  0  0
    7.8547   -2.7043    0.0000 N   0  0  3  0  0  0           0  0  0
    6.4208   -2.7000    0.0000 C   0  0  0  0  0  0           0  0  0
    6.4208   -3.5250    0.0000 N   0  0  3  0  0  0           0  0  0
    7.1329   -3.9333    0.0000 C   0  0  0  0  0  0           0  0  0
    7.1329   -2.2833    0.0000 C   0  0  0  0  0  0           0  0  0
    3.5694   -2.7041    0.0000 C   0  0  0  0  0  0           0  0  0
    3.5682   -3.5315    0.0000 C   0  0  0  0  0  0           0  0  0
    4.2831   -3.9444    0.0000 C   0  0  0  0  0  0           0  0  0
    4.9995   -3.5310    0.0000 C   0  0  0  0  0  0           0  0  0
    4.9966   -2.7005    0.0000 C   0  0  0  0  0  0           0  0  0
    4.2813   -2.2914    0.0000 C   0  0  0  0  0  0           0  0  0
    5.7083   -3.9417    0.0000 C   0  0  0  0  0  0           0  0  0
    7.1250   -4.7583    0.0000 O   0  0  0  0  0  0           0  0  0
    8.8375   -4.5833    0.0000 O   0  0  0  0  0  0           0  0  0
    9.9417   -3.1250    0.0000 C   0  0  0  0  0  0           0  0  0
   10.3500   -2.4083    0.0000 O   0  0  0  0  0  0           0  0  0
   10.3500   -3.8375    0.0000 O   0  0  0  0  0  0           0  0  0
   11.1750   -2.4083    0.0000 C   0  0  0  0  0  0           0  0  0
   11.5833   -1.6917    0.0000 C   0  0  0  0  0  0           0  0  0
    2.8500   -2.2875    0.0000 Cl  0  0  0  0  0  0           0  0  0
 11 12  1  0     0  0
  1  2  2  0     0  0
 12 13  2  0     0  0
 13 14  1  0     0  0
  2  3  1  0     0  0
 14 15  2  0     0  0
 15 10  1  0     0  0
  3  4  2  0     0  0
 13 16  1  0     0  0
 16  7  1  0     0  0
  6  9  1  0     0  0
  8 17  2  0     0  0
  7  8  1  0     0  0
  2 18  1  0     0  0
  8  1  1  0     0  0
  3 19  1  0     0  0
  5  9  1  0     0  0
 19 20  1  0     0  0
  4  5  1  0     0  0
 19 21  2  0     0  0
  5  1  1  0     0  0
 20 22  1  0     0  0
 10 11  2  0     0  0
 22 23  1  0     0  0
  6  7  1  0     0  0
 10 24  1  0     0  0
M  END
>  <prID>
733

>  <IDDB>
214794

>  <pIC50_HIV_Integrase>
7.397940009

>  <Q>
-1.597192558

>  <Activity_Integrase>
Active_Integrase

NA
NA
NA
NA
$$$$

  Accelrys05311914302D 1   1.00000     0.00000     0

 25 27  0     0  0            999 V2000
    7.8453   -3.5280    0.0000 C   0  0  0  0  0  0           0  0  0
    8.6276   -3.7899    0.0000 C   0  0  0  0  0  0           0  0  0
    9.1200   -3.1278    0.0000 C   0  0  0  0  0  0           0  0  0
    8.6398   -2.4538    0.0000 C   0  0  0  0  0  0           0  0  0
    7.8547   -2.7043    0.0000 N   0  0  3  0  0  0           0  0  0
    6.4208   -2.7000    0.0000 C   0  0  0  0  0  0           0  0  0
    6.4208   -3.5250    0.0000 N   0  0  3  0  0  0           0  0  0
    7.1329   -3.9333    0.0000 C   0  0  0  0  0  0           0  0  0
    7.1329   -2.2833    0.0000 C   0  0  0  0  0  0           0  0  0
    3.5694   -2.7041    0.0000 C   0  0  0  0  0  0           0  0  0
    3.5682   -3.5315    0.0000 C   0  0  0  0  0  0           0  0  0
    4.2831   -3.9444    0.0000 C   0  0  0  0  0  0           0  0  0
    4.9995   -3.5310    0.0000 C   0  0  0  0  0  0           0  0  0
    4.9966   -2.7005    0.0000 C   0  0  0  0  0  0           0  0  0
    4.2813   -2.2914    0.0000 C   0  0  0  0  0  0           0  0  0
    5.7083   -3.9417    0.0000 C   0  0  0  0  0  0           0  0  0
    7.1250   -4.7583    0.0000 O   0  0  0  0  0  0           0  0  0
    8.8375   -4.5833    0.0000 O   0  0  0  0  0  0           0  0  0
    9.9417   -3.1250    0.0000 C   0  0  0  0  0  0           0  0  0
   10.3500   -2.4083    0.0000 O   0  0  0  0  0  0           0  0  0
   10.3500   -3.8375    0.0000 O   0  0  0  0  0  0           0  0  0
   11.1750   -2.4083    0.0000 C   0  0  0  0  0  0           0  0  0
   11.5833   -1.6917    0.0000 C   0  0  0  0  0  0           0  0  0
    2.8500   -2.2875    0.0000 F   0  0  0  0  0  0           0  0  0
    2.8500   -3.9375    0.0000 Cl  0  0  0  0  0  0           0  0  0
  1  2  2  0     0  0
 12 13  2  0     0  0
 13 14  1  0     0  0
  2  3  1  0     0  0
 14 15  2  0     0  0
 15 10  1  0     0  0
  3  4  2  0     0  0
 13 16  1  0     0  0
 16  7  1  0     0  0
  6  9  1  0     0  0
  8 17  2  0     0  0
  7  8  1  0     0  0
  2 18  1  0     0  0
  8  1  1  0     0  0
  3 19  1  0     0  0
  5  9  1  0     0  0
 19 20  1  0     0  0
  4  5  1  0     0  0
 19 21  2  0     0  0
  5  1  1  0     0  0
 20 22  1  0     0  0
 10 11  2  0     0  0
 22 23  1  0     0  0
  6  7  1  0     0  0
 10 24  1  0     0  0
 11 12  1  0     0  0
 11 25  1  0     0  0
M  END
>  <prID>
734

>  <IDDB>
214795

>  <pIC50_HIV_Integrase>
7.698970004

>  <Q>
-3.972242585

>  <Activity_Integrase>
Active_Integrase

NA
NA
NA
NA
$$$$

  Accelrys05311914302D 1   1.00000     0.00000     0

 25 27  0     0  0            999 V2000
    7.8453   -3.5280    0.0000 C   0  0  0  0  0  0           0  0  0
    8.6276   -3.7899    0.0000 C   0  0  0  0  0  0           0  0  0
    9.1200   -3.1278    0.0000 C   0  0  0  0  0  0           0  0  0
    8.6398   -2.4538    0.0000 C   0  0  0  0  0  0           0  0  0
    7.8547   -2.7043    0.0000 N   0  0  3  0  0  0           0  0  0
    6.4208   -2.7000    0.0000 C   0  0  0  0  0  0           0  0  0
    6.4208   -3.5250    0.0000 N   0  0  3  0  0  0           0  0  0
    7.1329   -3.9333    0.0000 C   0  0  0  0  0  0           0  0  0
    7.1329   -2.2833    0.0000 C   0  0  0  0  0  0           0  0  0
    3.5694   -2.7041    0.0000 C   0  0  0  0  0  0           0  0  0
    3.5682   -3.5315    0.0000 C   0  0  0  0  0  0           0  0  0
    4.2831   -3.9444    0.0000 C   0  0  0  0  0  0           0  0  0
    4.9995   -3.5310    0.0000 C   0  0  0  0  0  0           0  0  0
    4.9966   -2.7005    0.0000 C   0  0  0  0  0  0           0  0  0
    4.2813   -2.2914    0.0000 C   0  0  0  0  0  0           0  0  0
    5.7083   -3.9417    0.0000 C   0  0  0  0  0  0           0  0  0
    7.1250   -4.7583    0.0000 O   0  0  0  0  0  0           0  0  0
    8.8375   -4.5833    0.0000 O   0  0  0  0  0  0           0  0  0
    9.9417   -3.1250    0.0000 C   0  0  0  0  0  0           0  0  0
   10.3500   -2.4083    0.0000 O   0  0  0  0  0  0           0  0  0
   10.3500   -3.8375    0.0000 O   0  0  0  0  0  0           0  0  0
   11.1750   -2.4083    0.0000 C   0  0  0  0  0  0           0  0  0
   11.5833   -1.6917    0.0000 C   0  0  0  0  0  0           0  0  0
    2.8500   -2.2875    0.0000 Cl  0  0  0  0  0  0           0  0  0
    2.8500   -3.9375    0.0000 Cl  0  0  0  0  0  0           0  0  0
  1  2  2  0     0  0
 12 13  2  0     0  0
 13 14  1  0     0  0
  2  3  1  0     0  0
 14 15  2  0     0  0
 15 10  1  0     0  0
  3  4  2  0     0  0
 13 16  1  0     0  0
 16  7  1  0     0  0
  6  9  1  0     0  0
  8 17  2  0     0  0
  7  8  1  0     0  0
  2 18  1  0     0  0
  8  1  1  0     0  0
  3 19  1  0     0  0
  5  9  1  0     0  0
 19 20  1  0     0  0
  4  5  1  0     0  0
 19 21  2  0     0  0
  5  1  1  0     0  0
 20 22  1  0     0  0
 10 11  2  0     0  0
 22 23  1  0     0  0
  6  7  1  0     0  0
 10 24  1  0     0  0
 11 12  1  0     0  0
 11 25  1  0     0  0
M  END
>  <prID>
735

>  <IDDB>
214796

>  <pIC50_HIV_Integrase>
8

>  <Q>
-2.48457184

>  <Activity_Integrase>
Active_Integrase

NA
NA
NA
NA
$$$$

  Accelrys05311914302D 1   1.00000     0.00000     0

 23 25  0     0  0            999 V2000
    7.8453   -3.5280    0.0000 C   0  0  0  0  0  0           0  0  0
    8.6276   -3.7899    0.0000 C   0  0  0  0  0  0           0  0  0
    9.1200   -3.1278    0.0000 C   0  0  0  0  0  0           0  0  0
    8.6398   -2.4538    0.0000 C   0  0  0  0  0  0           0  0  0
    7.8547   -2.7043    0.0000 N   0  0  3  0  0  0           0  0  0
    6.4208   -2.7000    0.0000 C   0  0  0  0  0  0           0  0  0
    6.4208   -3.5250    0.0000 N   0  0  3  0  0  0           0  0  0
    7.1329   -3.9333    0.0000 C   0  0  0  0  0  0           0  0  0
    7.1329   -2.2833    0.0000 C   0  0  0  0  0  0           0  0  0
    3.5694   -2.7041    0.0000 C   0  0  0  0  0  0           0  0  0
    3.5682   -3.5315    0.0000 C   0  0  0  0  0  0           0  0  0
    4.2831   -3.9444    0.0000 C   0  0  0  0  0  0           0  0  0
    4.9995   -3.5310    0.0000 C   0  0  0  0  0  0           0  0  0
    4.9966   -2.7005    0.0000 C   0  0  0  0  0  0           0  0  0
    4.2813   -2.2914    0.0000 C   0  0  0  0  0  0           0  0  0
    5.7083   -3.9417    0.0000 C   0  0  0  0  0  0           0  0  0
    7.1250   -4.7583    0.0000 O   0  0  0  0  0  0           0  0  0
    8.8375   -4.5833    0.0000 O   0  0  0  0  0  0           0  0  0
    9.9417   -3.1250    0.0000 C   0  0  0  0  0  0           0  0  0
   10.3500   -2.4083    0.0000 N   0  0  0  0  0  0           0  0  0
   10.3500   -3.8375    0.0000 O   0  0  0  0  0  0           0  0  0
   11.1750   -2.4083    0.0000 C   0  0  0  0  0  0           0  0  0
    2.8500   -2.2875    0.0000 Cl  0  0  0  0  0  0           0  0  0
  6  7  1  0     0  0
 11 12  1  0     0  0
  1  2  2  0     0  0
 12 13  2  0     0  0
 13 14  1  0     0  0
  2  3  1  0     0  0
 14 15  2  0     0  0
 15 10  1  0     0  0
  3  4  2  0     0  0
 13 16  1  0     0  0
 16  7  1  0     0  0
  6  9  1  0     0  0
  8 17  2  0     0  0
  7  8  1  0     0  0
  2 18  1  0     0  0
  8  1  1  0     0  0
  3 19  1  0     0  0
  5  9  1  0     0  0
 19 20  1  0     0  0
  4  5  1  0     0  0
 19 21  2  0     0  0
  5  1  1  0     0  0
 20 22  1  0     0  0
 10 11  2  0     0  0
 10 23  1  0     0  0
M  END
>  <prID>
736

>  <IDDB>
214797

>  <pIC50_HIV_Integrase>
7.22184875

>  <Q>
-1.437952121

>  <Activity_Integrase>
Active_Integrase

NA
NA
NA
NA
$$$$

  Accelrys05311914302D 1   1.00000     0.00000     0

 24 26  0     0  0            999 V2000
    7.8453   -3.5280    0.0000 C   0  0  0  0  0  0           0  0  0
    8.6276   -3.7899    0.0000 C   0  0  0  0  0  0           0  0  0
    9.1200   -3.1278    0.0000 C   0  0  0  0  0  0           0  0  0
    8.6398   -2.4538    0.0000 C   0  0  0  0  0  0           0  0  0
    7.8547   -2.7043    0.0000 N   0  0  3  0  0  0           0  0  0
    6.4208   -2.7000    0.0000 C   0  0  0  0  0  0           0  0  0
    6.4208   -3.5250    0.0000 N   0  0  3  0  0  0           0  0  0
    7.1329   -3.9333    0.0000 C   0  0  0  0  0  0           0  0  0
    7.1329   -2.2833    0.0000 C   0  0  0  0  0  0           0  0  0
    3.5694   -2.7041    0.0000 C   0  0  0  0  0  0           0  0  0
    3.5682   -3.5315    0.0000 C   0  0  0  0  0  0           0  0  0
    4.2831   -3.9444    0.0000 C   0  0  0  0  0  0           0  0  0
    4.9995   -3.5310    0.0000 C   0  0  0  0  0  0           0  0  0
    4.9966   -2.7005    0.0000 C   0  0  0  0  0  0           0  0  0
    4.2813   -2.2914    0.0000 C   0  0  0  0  0  0           0  0  0
    5.7083   -3.9417    0.0000 C   0  0  0  0  0  0           0  0  0
    7.1250   -4.7583    0.0000 O   0  0  0  0  0  0           0  0  0
    8.8375   -4.5833    0.0000 O   0  0  0  0  0  0           0  0  0
    9.9417   -3.1250    0.0000 C   0  0  0  0  0  0           0  0  0
   10.3500   -2.4083    0.0000 N   0  0  0  0  0  0           0  0  0
   10.3500   -3.8375    0.0000 O   0  0  0  0  0  0           0  0  0
   11.1750   -2.4083    0.0000 C   0  0  0  0  0  0           0  0  0
    2.8500   -2.2875    0.0000 Cl  0  0  0  0  0  0           0  0  0
    2.8500   -3.9375    0.0000 Cl  0  0  0  0  0  0           0  0  0
 11 12  1  0     0  0
  1  2  2  0     0  0
 12 13  2  0     0  0
 13 14  1  0     0  0
  2  3  1  0     0  0
 14 15  2  0     0  0
 15 10  1  0     0  0
  3  4  2  0     0  0
 13 16  1  0     0  0
 16  7  1  0     0  0
  6  9  1  0     0  0
  8 17  2  0     0  0
  7  8  1  0     0  0
  2 18  1  0     0  0
  8  1  1  0     0  0
  3 19  1  0     0  0
  5  9  1  0     0  0
 19 20  1  0     0  0
  4  5  1  0     0  0
 19 21  2  0     0  0
  5  1  1  0     0  0
 20 22  1  0     0  0
 10 11  2  0     0  0
 10 23  1  0     0  0
  6  7  1  0     0  0
 11 24  1  0     0  0
M  END
>  <prID>
737

>  <IDDB>
214799

>  <pIC50_HIV_Integrase>
7.397940009

>  <Q>
-2.325331404

>  <Activity_Integrase>
Active_Integrase

NA
NA
NA
NA
$$$$

  Accelrys05311914302D 1   1.00000     0.00000     0

 43 46  0     0  0            999 V2000
   10.7042   -4.6125    0.0000 C   0  0  2  0  0  0           0  0  0
   11.4167   -4.2000    0.0000 C   0  0  0  0  0  0           0  0  0
   12.1292   -4.6125    0.0000 C   0  0  0  0  0  0           0  0  0
   12.8417   -4.2000    0.0000 C   0  0  0  0  0  0           0  0  0
   13.5542   -4.6125    0.0000 C   0  0  3  0  0  0           0  0  0
   14.2667   -4.2000    0.0000 C   0  0  0  0  0  0           0  0  0
   10.0032   -5.8542    0.0000 C   0  0  1  0  0  0           0  0  0
   10.0032   -6.6792    0.0000 C   0  0  3  0  0  0           0  0  0
   11.4272   -6.6792    0.0000 C   0  0  0  0  0  0           0  0  0
   11.4272   -5.8542    0.0000 C   0  0  0  0  0  0           0  0  0
   10.7111   -5.4375    0.0000 C   0  0  2  0  0  0           0  0  0
    7.8667   -7.0875    0.0000 C   0  0  1  0  0  0           0  0  0
    7.8667   -7.9125    0.0000 C   0  0  1  0  0  0           0  0  0
    8.5787   -8.3208    0.0000 C   0  0  0  0  0  0           0  0  0
    9.2907   -7.9125    0.0000 C   0  0  0  0  0  0           0  0  0
    9.2907   -7.0875    0.0000 C   0  0  0  0  0  0           0  0  0
    8.5787   -6.6708    0.0000 C   0  0  0  0  0  0           0  0  0
    6.4417   -7.0875    0.0000 C   0  0  1  0  0  0           0  0  0
    6.4417   -7.9125    0.0000 C   0  0  1  0  0  0           0  0  0
    7.1537   -8.3208    0.0000 C   0  0  3  0  0  0           0  0  0
    7.1537   -6.6708    0.0000 C   0  0  0  0  0  0           0  0  0
    8.5792   -5.8542    0.0000 C   0  0  2  0  0  0           0  0  0
    9.2912   -5.4375    0.0000 C   0  0  2  0  0  0           0  0  0
    5.7250   -6.6750    0.0000 O   0  0  0  0  0  0           0  0  0
    5.7250   -8.3208    0.0000 O   0  0  0  0  0  0           0  0  0
    6.4333   -8.7292    0.0000 C   0  0  0  0  0  0           0  0  0
    7.3625   -9.1167    0.0000 C   0  0  0  0  0  0           0  0  0
    7.8625   -8.7375    0.0000 H   0  0  0  0  0  0           0  0  0
    7.8625   -6.2625    0.0000 C   0  0  0  0  0  0           0  0  0
    7.8625   -5.4417    0.0000 O   0  0  0  0  0  0           0  0  0
    9.2833   -4.6125    0.0000 O   0  0  0  0  0  0           0  0  0
    8.5667   -4.2000    0.0000 C   0  0  0  0  0  0           0  0  0
    8.5625   -3.3750    0.0000 C   0  0  0  0  0  0           0  0  0
    7.8500   -4.6083    0.0000 O   0  0  0  0  0  0           0  0  0
    9.9958   -5.0292    0.0000 C   0  0  0  0  0  0           0  0  0
    9.9875   -4.2000    0.0000 C   0  0  0  0  0  0           0  0  0
   12.8375   -3.3750    0.0000 C   0  0  0  0  0  0           0  0  0
   13.5500   -5.4375    0.0000 C   0  0  0  0  0  0           0  0  0
   11.4208   -5.0208    0.0000 H   0  0  0  0  0  0           0  0  0
    5.0083   -7.9083    0.0000 S   0  0  3  0  0  0           0  0  0
    4.2375   -8.5667    0.0000 O   0  0  0  0  0  0           0  0  0
    5.6750   -7.4125    0.0000 O   0  0  0  0  0  0           0  0  0
    4.2917   -7.4958    0.0000 O   0  0  0  0  0  0           0  0  0
 22 17  1  0     0  0
  8  9  1  0     0  0
 12 13  1  0     0  0
 22 23  1  0     0  0
 16  8  1  0     0  0
  7 23  1  0     0  0
  5  6  1  0     0  0
 18 24  1  6     0  0
  7  8  1  0     0  0
 19 25  1  1     0  0
  1  2  1  0     0  0
 20 26  1  0     0  0
  3  4  1  0     0  0
 20 27  1  0     0  0
 13 28  1  6     0  0
  4  5  1  0     0  0
 12 29  1  1     0  0
 12 17  1  0     0  0
 22 30  1  1     0  0
 13 14  1  0     0  0
 23 31  1  6     0  0
 14 15  1  0     0  0
 31 32  1  0     0  0
 15 16  1  0     0  0
 32 33  1  0     0  0
 16 17  2  0     0  0
 32 34  2  0     0  0
 18 19  1  0     0  0
  7 35  1  1     0  0
 11  1  1  0     0  0
  2  3  1  0     0  0
  1 36  1  6     0  0
  9 10  1  0     0  0
  4 37  2  0     0  0
 10 11  1  0     0  0
  5 38  1  0     0  0
 11  7  1  0     0  0
 11 39  1  6     0  0
 18 21  1  0     0  0
 25 40  1  0     0  0
 19 20  1  0     0  0
 40 41  1  0     0  0
 20 13  1  0     0  0
 40 42  2  0     0  0
 12 21  1  0     0  0
 40 43  2  0     0  0
M  END
>  <prID>
738

>  <IDDB>
217988

>  <pIC50_HIV_Integrase>
4.823908741

>  <Q>
-8.532334372

>  <Activity_Integrase>
Inactive_Integrase

NA
NA
NA
NA
$$$$

  Accelrys05311914302D 1   1.00000     0.00000     0

 63 67  0     0  0            999 V2000
   -2.2542   -5.4208    0.0000 C   0  0  0  0  0  0           0  0  0
   -1.6667   -5.0792    0.0000 C   0  0  0  0  0  0           0  0  0
   -1.0833   -5.4167    0.0000 C   0  0  0  0  0  0           0  0  0
   -0.5000   -5.0750    0.0000 C   0  0  0  0  0  0           0  0  0
    0.0833   -5.4167    0.0000 C   0  0  0  0  0  0           0  0  0
    0.6667   -5.0750    0.0000 C   0  0  0  0  0  0           0  0  0
    1.2542   -5.4125    0.0000 C   0  0  0  0  0  0           0  0  0
    1.8333   -5.0750    0.0000 C   0  0  0  0  0  0           0  0  0
    2.4208   -5.4083    0.0000 C   0  0  0  0  0  0           0  0  0
    2.9958   -5.0708    0.0000 C   0  0  0  0  0  0           0  0  0
    3.5833   -5.4000    0.0000 C   0  0  0  0  0  0           0  0  0
    4.1667   -5.0667    0.0000 C   0  0  0  0  0  0           0  0  0
    4.7500   -5.4000    0.0000 C   0  0  0  0  0  0           0  0  0
    5.3375   -5.0625    0.0000 C   0  0  0  0  0  0           0  0  0
    5.9208   -5.4000    0.0000 C   0  0  0  0  0  0           0  0  0
    6.5042   -5.0583    0.0000 C   0  0  0  0  0  0           0  0  0
    6.5000   -4.3792    0.0000 O   0  0  0  0  0  0           0  0  0
   -2.8375   -5.0792    0.0000 O   0  0  0  0  0  0           0  0  0
    7.0833   -5.3958    0.0000 O   0  0  0  0  0  0           0  0  0
   12.9125   -3.3583    0.0000 C   0  0  3  0  0  0           0  0  0
   13.4878   -3.0013    0.0000 O   0  0  0  0  0  0           0  0  0
   12.8924   -2.6823    0.0000 C   0  0  0  0  0  0           0  0  0
   11.1584   -3.7000    0.0000 C   0  0  2  0  0  0           0  0  0
   11.7459   -3.3583    0.0000 C   0  0  0  0  0  0           0  0  0
   12.3292   -3.7000    0.0000 C   0  0  0  0  0  0           0  0  0
   13.4959   -3.7000    0.0000 C   0  0  3  0  0  0           0  0  0
   14.0792   -3.3583    0.0000 C   0  0  0  0  0  0           0  0  0
   10.5907   -4.7167    0.0000 C   0  0  1  0  0  0           0  0  0
   10.5907   -5.4000    0.0000 C   0  0  0  0  0  0           0  0  0
   11.7605   -5.4000    0.0000 C   0  0  0  0  0  0           0  0  0
   11.7605   -4.7167    0.0000 C   0  0  0  0  0  0           0  0  0
   11.1653   -4.3750    0.0000 C   0  0  2  0  0  0           0  0  0
    8.8375   -5.7333    0.0000 C   0  0  1  0  0  0           0  0  0
    8.8375   -6.4083    0.0000 C   0  0  1  0  0  0           0  0  0
    9.4204   -6.7458    0.0000 C   0  0  0  0  0  0           0  0  0
   10.0074   -6.4083    0.0000 C   0  0  0  0  0  0           0  0  0
   10.0074   -5.7333    0.0000 C   0  0  0  0  0  0           0  0  0
    9.4204   -5.3916    0.0000 C   0  0  0  0  0  0           0  0  0
    7.6709   -5.7333    0.0000 C   0  0  1  0  0  0           0  0  0
    7.6709   -6.4083    0.0000 C   0  0  1  0  0  0           0  0  0
    8.2537   -6.7458    0.0000 C   0  0  3  0  0  0           0  0  0
    8.2537   -5.3916    0.0000 C   0  0  0  0  0  0           0  0  0
    9.4209   -4.7167    0.0000 C   0  0  2  0  0  0           0  0  0
   10.0079   -4.3750    0.0000 C   0  0  2  0  0  0           0  0  0
    7.0833   -6.7458    0.0000 O   0  0  0  0  0  0           0  0  0
    7.6666   -7.0834    0.0000 C   0  0  0  0  0  0           0  0  0
    8.4250   -7.4000    0.0000 C   0  0  0  0  0  0           0  0  0
    8.8375   -7.0833    0.0000 H   0  0  0  0  0  0           0  0  0
    8.8375   -5.0583    0.0000 C   0  0  0  0  0  0           0  0  0
    8.8375   -4.3792    0.0000 O   0  0  0  0  0  0           0  0  0
    9.9958   -3.7000    0.0000 O   0  0  0  0  0  0           0  0  0
    9.4167   -3.3583    0.0000 C   0  0  0  0  0  0           0  0  0
    9.4083   -2.6833    0.0000 C   0  0  0  0  0  0           0  0  0
    8.8208   -3.7000    0.0000 O   0  0  0  0  0  0           0  0  0
   10.5833   -4.0417    0.0000 C   0  0  0  0  0  0           0  0  0
   10.5750   -3.3583    0.0000 C   0  0  0  0  0  0           0  0  0
   13.4958   -4.3750    0.0000 C   0  0  0  0  0  0           0  0  0
   11.7500   -4.0375    0.0000 H   0  0  0  0  0  0           0  0  0
    6.5000   -6.4083    0.0000 S   0  0  3  0  0  0           0  0  0
    5.8667   -6.9500    0.0000 O   0  0  0  0  0  0           0  0  0
    7.0417   -6.0000    0.0000 O   0  0  0  0  0  0           0  0  0
    5.9084   -6.0666    0.0000 O   0  0  0  0  0  0           0  0  0
   14.0792   -4.0375    0.0000 O   0  0  0  0  0  0           0  0  0
  9 10  1  0     0  0
  2  3  1  0     0  0
 10 11  1  0     0  0
  5  6  1  0     0  0
 11 12  1  0     0  0
  1  2  1  0     0  0
 12 13  1  0     0  0
  6  7  1  0     0  0
 13 14  1  0     0  0
  3  4  1  0     0  0
 14 15  1  0     0  0
  7  8  1  0     0  0
 15 16  1  0     0  0
 16 17  2  0     0  0
  8  9  1  0     0  0
  1 18  1  0     0  0
  4  5  1  0     0  0
 16 19  1  0     0  0
 21 20  1  0     0  0
 22 21  1  0     0  0
 43 38  1  0     0  0
 29 30  2  0     0  0
 33 34  1  0     0  0
 43 44  1  0     0  0
 37 29  1  0     0  0
 28 44  1  0     0  0
 26 27  1  0     0  0
 39 19  1  6     0  0
 28 29  1  0     0  0
 40 45  1  1     0  0
 23 24  1  0     0  0
 41 46  1  0     0  0
 25 20  1  0     0  0
 41 47  1  0     0  0
 34 48  1  6     0  0
 20 26  1  0     0  0
 33 49  1  1     0  0
 33 38  1  0     0  0
 43 50  1  1     0  0
 34 35  1  0     0  0
 44 51  1  6     0  0
 35 36  1  0     0  0
 51 52  1  0     0  0
 36 37  1  0     0  0
 52 53  1  0     0  0
 37 38  2  0     0  0
 52 54  2  0     0  0
 39 40  1  0     0  0
 28 55  1  1     0  0
 32 23  1  0     0  0
 24 25  1  0     0  0
 23 56  1  6     0  0
 30 31  1  0     0  0
 31 32  1  0     0  0
 26 57  1  0     0  0
 32 28  1  0     0  0
 32 58  1  6     0  0
 39 42  1  0     0  0
 45 59  1  0     0  0
 40 41  1  0     0  0
 59 60  1  0     0  0
 41 34  1  0     0  0
 59 61  2  0     0  0
 33 42  1  0     0  0
 59 62  2  0     0  0
 20 22  1  0     0  0
 26 63  1  0     0  0
M  END
>  <prID>
739

>  <IDDB>
217989

>  <pIC50_HIV_Integrase>
4.853871964

>  <Q>
-13.9880619

>  <Activity_Integrase>
Inactive_Integrase

NA
NA
NA
NA
$$$$

  Accelrys05311914302D 1   1.00000     0.00000     0

 63 67  0     0  0            999 V2000
   -2.2542   -5.4208    0.0000 C   0  0  0  0  0  0           0  0  0
   -1.6667   -5.0792    0.0000 C   0  0  0  0  0  0           0  0  0
   -1.0833   -5.4167    0.0000 C   0  0  0  0  0  0           0  0  0
   -0.5000   -5.0750    0.0000 C   0  0  0  0  0  0           0  0  0
    0.0833   -5.4167    0.0000 C   0  0  0  0  0  0           0  0  0
    0.6667   -5.0750    0.0000 C   0  0  0  0  0  0           0  0  0
    1.2542   -5.4125    0.0000 C   0  0  0  0  0  0           0  0  0
    1.8333   -5.0750    0.0000 C   0  0  0  0  0  0           0  0  0
    2.4208   -5.4083    0.0000 C   0  0  0  0  0  0           0  0  0
    2.9958   -5.0708    0.0000 C   0  0  0  0  0  0           0  0  0
    3.5833   -5.4000    0.0000 C   0  0  0  0  0  0           0  0  0
    4.1667   -5.0667    0.0000 C   0  0  0  0  0  0           0  0  0
    4.7500   -5.4000    0.0000 C   0  0  0  0  0  0           0  0  0
    5.3375   -5.0625    0.0000 C   0  0  0  0  0  0           0  0  0
    5.9208   -5.4000    0.0000 C   0  0  0  0  0  0           0  0  0
    6.5042   -5.0583    0.0000 C   0  0  0  0  0  0           0  0  0
    6.5000   -4.3792    0.0000 O   0  0  0  0  0  0           0  0  0
   -2.8375   -5.0792    0.0000 O   0  0  0  0  0  0           0  0  0
    7.0833   -5.3958    0.0000 O   0  0  0  0  0  0           0  0  0
   12.9125   -3.3583    0.0000 C   0  0  3  0  0  0           0  0  0
   13.4878   -3.0013    0.0000 O   0  0  0  0  0  0           0  0  0
   12.8924   -2.6823    0.0000 C   0  0  0  0  0  0           0  0  0
   11.1584   -3.7000    0.0000 C   0  0  2  0  0  0           0  0  0
   11.7459   -3.3583    0.0000 C   0  0  0  0  0  0           0  0  0
   12.3292   -3.7000    0.0000 C   0  0  0  0  0  0           0  0  0
   13.4959   -3.7000    0.0000 C   0  0  3  0  0  0           0  0  0
   14.0792   -3.3583    0.0000 C   0  0  0  0  0  0           0  0  0
   10.5907   -4.7167    0.0000 C   0  0  1  0  0  0           0  0  0
   10.5907   -5.4000    0.0000 C   0  0  3  0  0  0           0  0  0
   11.7605   -5.4000    0.0000 C   0  0  0  0  0  0           0  0  0
   11.7605   -4.7167    0.0000 C   0  0  0  0  0  0           0  0  0
   11.1653   -4.3750    0.0000 C   0  0  2  0  0  0           0  0  0
    8.8375   -5.7333    0.0000 C   0  0  1  0  0  0           0  0  0
    8.8375   -6.4083    0.0000 C   0  0  1  0  0  0           0  0  0
    9.4204   -6.7458    0.0000 C   0  0  0  0  0  0           0  0  0
   10.0074   -6.4083    0.0000 C   0  0  0  0  0  0           0  0  0
   10.0074   -5.7333    0.0000 C   0  0  0  0  0  0           0  0  0
    9.4204   -5.3916    0.0000 C   0  0  0  0  0  0           0  0  0
    7.6709   -5.7333    0.0000 C   0  0  1  0  0  0           0  0  0
    7.6709   -6.4083    0.0000 C   0  0  1  0  0  0           0  0  0
    8.2537   -6.7458    0.0000 C   0  0  3  0  0  0           0  0  0
    8.2537   -5.3916    0.0000 C   0  0  0  0  0  0           0  0  0
    9.4209   -4.7167    0.0000 C   0  0  2  0  0  0           0  0  0
   10.0079   -4.3750    0.0000 C   0  0  2  0  0  0           0  0  0
    7.0833   -6.7458    0.0000 O   0  0  0  0  0  0           0  0  0
    7.6666   -7.0834    0.0000 C   0  0  0  0  0  0           0  0  0
    8.4250   -7.4000    0.0000 C   0  0  0  0  0  0           0  0  0
    8.8375   -7.0833    0.0000 H   0  0  0  0  0  0           0  0  0
    8.8375   -5.0583    0.0000 C   0  0  0  0  0  0           0  0  0
    8.8375   -4.3792    0.0000 O   0  0  0  0  0  0           0  0  0
    9.9958   -3.7000    0.0000 O   0  0  0  0  0  0           0  0  0
    9.4167   -3.3583    0.0000 C   0  0  0  0  0  0           0  0  0
    9.4083   -2.6833    0.0000 C   0  0  0  0  0  0           0  0  0
    8.8208   -3.7000    0.0000 O   0  0  0  0  0  0           0  0  0
   10.5833   -4.0417    0.0000 C   0  0  0  0  0  0           0  0  0
   10.5750   -3.3583    0.0000 C   0  0  0  0  0  0           0  0  0
   13.4958   -4.3750    0.0000 C   0  0  0  0  0  0           0  0  0
   11.7500   -4.0375    0.0000 H   0  0  0  0  0  0           0  0  0
    6.5000   -6.4083    0.0000 S   0  0  3  0  0  0           0  0  0
    5.8667   -6.9500    0.0000 O   0  0  0  0  0  0           0  0  0
    7.0417   -6.0000    0.0000 O   0  0  0  0  0  0           0  0  0
    5.9084   -6.0666    0.0000 O   0  0  0  0  0  0           0  0  0
   14.0792   -4.0375    0.0000 O   0  0  0  0  0  0           0  0  0
  9 10  1  0     0  0
  2  3  1  0     0  0
 10 11  1  0     0  0
  5  6  1  0     0  0
 11 12  1  0     0  0
  1  2  1  0     0  0
 12 13  1  0     0  0
  6  7  1  0     0  0
 13 14  1  0     0  0
  3  4  1  0     0  0
 14 15  1  0     0  0
  7  8  1  0     0  0
 15 16  1  0     0  0
 16 17  2  0     0  0
  8  9  1  0     0  0
  1 18  1  0     0  0
  4  5  1  0     0  0
 16 19  1  0     0  0
 21 20  1  0     0  0
 22 21  1  0     0  0
 43 38  1  0     0  0
 29 30  1  0     0  0
 33 34  1  0     0  0
 43 44  1  0     0  0
 37 29  1  0     0  0
 28 44  1  0     0  0
 26 27  1  0     0  0
 39 19  1  6     0  0
 28 29  1  0     0  0
 40 45  1  1     0  0
 23 24  1  0     0  0
 41 46  1  0     0  0
 25 20  1  0     0  0
 41 47  1  0     0  0
 34 48  1  6     0  0
 20 26  1  0     0  0
 33 49  1  1     0  0
 33 38  1  0     0  0
 43 50  1  1     0  0
 34 35  1  0     0  0
 44 51  1  6     0  0
 35 36  1  0     0  0
 51 52  1  0     0  0
 36 37  1  0     0  0
 52 53  1  0     0  0
 37 38  2  0     0  0
 52 54  2  0     0  0
 39 40  1  0     0  0
 28 55  1  1     0  0
 32 23  1  0     0  0
 24 25  1  0     0  0
 23 56  1  6     0  0
 30 31  1  0     0  0
 31 32  1  0     0  0
 26 57  1  0     0  0
 32 28  1  0     0  0
 32 58  1  6     0  0
 39 42  1  0     0  0
 45 59  1  0     0  0
 40 41  1  0     0  0
 59 60  1  0     0  0
 41 34  1  0     0  0
 59 61  2  0     0  0
 33 42  1  0     0  0
 59 62  2  0     0  0
 20 22  1  0     0  0
 26 63  1  0     0  0
M  END
>  <prID>
740

>  <IDDB>
217990

>  <pIC50_HIV_Integrase>
5.251811973

>  <Q>
-14.72728896

>  <Activity_Integrase>
Inactive_Integrase

NA
NA
NA
NA
$$$$

  Accelrys05311914302D 1   1.00000     0.00000     0

 42 45  0     0  0            999 V2000
    9.7584   -3.0917    0.0000 C   0  0  0  0  0  0           0  0  0
    9.7174   -2.2948    0.0000 C   0  0  0  0  0  0           0  0  0
    7.6334   -3.5208    0.0000 C   0  0  2  0  0  0           0  0  0
    8.3417   -3.1083    0.0000 C   0  0  0  0  0  0           0  0  0
    9.0417   -3.5208    0.0000 C   0  0  0  0  0  0           0  0  0
   10.4459   -3.5208    0.0000 C   0  0  3  0  0  0           0  0  0
   11.1459   -3.1083    0.0000 C   0  0  0  0  0  0           0  0  0
    6.9490   -4.7459    0.0000 C   0  0  1  0  0  0           0  0  0
    6.9490   -5.5667    0.0000 C   0  0  0  0  0  0           0  0  0
    8.3564   -5.5667    0.0000 C   0  0  0  0  0  0           0  0  0
    8.3564   -4.7459    0.0000 C   0  0  0  0  0  0           0  0  0
    7.6403   -4.3333    0.0000 C   0  0  2  0  0  0           0  0  0
    4.8417   -5.9667    0.0000 C   0  0  1  0  0  0           0  0  0
    4.8417   -6.7792    0.0000 C   0  0  1  0  0  0           0  0  0
    5.5412   -7.1875    0.0000 C   0  0  0  0  0  0           0  0  0
    6.2490   -6.7792    0.0000 C   0  0  0  0  0  0           0  0  0
    6.2490   -5.9667    0.0000 C   0  0  0  0  0  0           0  0  0
    5.5412   -5.5541    0.0000 C   0  0  0  0  0  0           0  0  0
    3.4417   -5.9667    0.0000 C   0  0  0  0  0  0           0  0  0
    3.4417   -6.7792    0.0000 C   0  0  1  0  0  0           0  0  0
    4.1412   -7.1875    0.0000 C   0  0  3  0  0  0           0  0  0
    4.1412   -5.5541    0.0000 C   0  0  0  0  0  0           0  0  0
    5.5459   -4.7459    0.0000 C   0  0  2  0  0  0           0  0  0
    6.2495   -4.3333    0.0000 C   0  0  2  0  0  0           0  0  0
    2.7333   -7.1875    0.0000 O   0  0  0  0  0  0           0  0  0
    3.4333   -7.5917    0.0000 C   0  0  0  0  0  0           0  0  0
    4.3458   -7.9750    0.0000 C   0  0  0  0  0  0           0  0  0
    4.8417   -7.5917    0.0000 H   0  0  0  0  0  0           0  0  0
    4.8417   -5.1542    0.0000 C   0  0  0  0  0  0           0  0  0
    4.8417   -4.3375    0.0000 O   0  0  0  0  0  0           0  0  0
    6.2333   -3.5208    0.0000 O   0  0  0  0  0  0           0  0  0
    5.5375   -3.1083    0.0000 C   0  0  0  0  0  0           0  0  0
    5.5292   -2.2958    0.0000 C   0  0  0  0  0  0           0  0  0
    4.8250   -3.5208    0.0000 O   0  0  0  0  0  0           0  0  0
    6.9416   -3.9334    0.0000 C   0  0  0  0  0  0           0  0  0
    6.9333   -3.1083    0.0000 C   0  0  0  0  0  0           0  0  0
   10.4458   -4.3333    0.0000 C   0  0  0  0  0  0           0  0  0
    8.3458   -3.9250    0.0000 H   0  0  0  0  0  0           0  0  0
    2.0333   -6.7791    0.0000 S   0  0  3  0  0  0           0  0  0
    1.2708   -7.4334    0.0000 O   0  0  0  0  0  0           0  0  0
    2.6833   -6.2875    0.0000 O   0  0  0  0  0  0           0  0  0
    1.3209   -6.3666    0.0000 O   0  0  0  0  0  0           0  0  0
  1  2  2  0     0  0
 23 18  1  0     0  0
  9 10  2  0     0  0
 13 14  1  0     0  0
 23 24  1  0     0  0
 17  9  1  0     0  0
  8 24  1  0     0  0
  6  7  1  0     0  0
  8  9  1  0     0  0
 20 25  1  1     0  0
  3  4  1  0     0  0
 21 26  1  0     0  0
  5  1  1  0     0  0
 21 27  1  0     0  0
 14 28  1  6     0  0
  1  6  1  0     0  0
 13 29  1  1     0  0
 13 18  1  0     0  0
 23 30  1  1     0  0
 14 15  1  0     0  0
 24 31  1  6     0  0
 15 16  1  0     0  0
 31 32  1  0     0  0
 16 17  1  0     0  0
 32 33  1  0     0  0
 17 18  2  0     0  0
 32 34  2  0     0  0
 19 20  1  0     0  0
  8 35  1  1     0  0
 12  3  1  0     0  0
  4  5  1  0     0  0
  3 36  1  6     0  0
 10 11  1  0     0  0
 11 12  1  0     0  0
  6 37  1  0     0  0
 12  8  1  0     0  0
 12 38  1  6     0  0
 19 22  1  0     0  0
 25 39  1  0     0  0
 20 21  1  0     0  0
 39 40  1  0     0  0
 21 14  1  0     0  0
 39 41  2  0     0  0
 13 22  1  0     0  0
 39 42  2  0     0  0
M  END
>  <prID>
741

>  <IDDB>
217991

>  <pIC50_HIV_Integrase>
5.318758763

>  <Q>
-7.111909364

>  <Activity_Integrase>
Inactive_Integrase

NA
NA
NA
NA
$$$$

  Accelrys05311914302D 1   1.00000     0.00000     0

 45 48  0     0  0            999 V2000
    2.0708   -5.0417    0.0000 O   0  0  0  0  0  0           0  0  0
    2.7833   -5.4542    0.0000 C   0  0  0  0  0  0           0  0  0
    3.4958   -5.0458    0.0000 C   0  0  0  0  0  0           0  0  0
    4.2083   -5.4583    0.0000 C   0  0  3  0  0  0           0  0  0
    4.9208   -5.0500    0.0000 C   0  0  0  0  0  0           0  0  0
    5.6333   -5.4625    0.0000 C   0  0  0  0  0  0           0  0  0
    6.3458   -5.0542    0.0000 O   0  0  0  0  0  0           0  0  0
    5.6292   -6.2875    0.0000 O   0  0  0  0  0  0           0  0  0
    4.2042   -6.2833    0.0000 C   0  0  0  0  0  0           0  0  0
    4.2042   -4.6333    0.0000 O   0  0  0  0  0  0           0  0  0
    2.7792   -6.2792    0.0000 O   0  0  0  0  0  0           0  0  0
   13.3792   -2.5917    0.0000 C   0  0  3  0  0  0           0  0  0
   13.3382   -1.7948    0.0000 O   0  0  0  0  0  0           0  0  0
   11.2542   -3.0208    0.0000 C   0  0  2  0  0  0           0  0  0
   11.9625   -2.6083    0.0000 C   0  0  0  0  0  0           0  0  0
   12.6625   -3.0208    0.0000 C   0  0  0  0  0  0           0  0  0
   14.0667   -3.0208    0.0000 C   0  0  3  0  0  0           0  0  0
   14.7667   -2.6083    0.0000 C   0  0  0  0  0  0           0  0  0
   10.5699   -4.2459    0.0000 C   0  0  1  0  0  0           0  0  0
   10.5699   -5.0667    0.0000 C   0  0  3  0  0  0           0  0  0
   11.9772   -5.0667    0.0000 C   0  0  0  0  0  0           0  0  0
   11.9772   -4.2459    0.0000 C   0  0  0  0  0  0           0  0  0
   11.2611   -3.8333    0.0000 C   0  0  2  0  0  0           0  0  0
    8.4625   -5.4667    0.0000 C   0  0  1  0  0  0           0  0  0
    8.4625   -6.2792    0.0000 C   0  0  1  0  0  0           0  0  0
    9.1620   -6.6875    0.0000 C   0  0  0  0  0  0           0  0  0
    9.8699   -6.2792    0.0000 C   0  0  0  0  0  0           0  0  0
    9.8699   -5.4667    0.0000 C   0  0  0  0  0  0           0  0  0
    9.1620   -5.0541    0.0000 C   0  0  0  0  0  0           0  0  0
    7.0625   -5.4667    0.0000 C   0  0  1  0  0  0           0  0  0
    7.0625   -6.2792    0.0000 C   0  0  0  0  0  0           0  0  0
    7.7620   -6.6875    0.0000 C   0  0  3  0  0  0           0  0  0
    7.7620   -5.0541    0.0000 C   0  0  0  0  0  0           0  0  0
    9.1667   -4.2459    0.0000 C   0  0  0  0  0  0           0  0  0
    9.8704   -3.8333    0.0000 C   0  0  0  0  0  0           0  0  0
    7.0541   -7.0917    0.0000 C   0  0  0  0  0  0           0  0  0
    7.9667   -7.4750    0.0000 C   0  0  0  0  0  0           0  0  0
    8.4625   -7.0917    0.0000 H   0  0  0  0  0  0           0  0  0
    8.4625   -4.6542    0.0000 C   0  0  0  0  0  0           0  0  0
   10.5625   -3.4334    0.0000 C   0  0  0  0  0  0           0  0  0
   10.5542   -2.6083    0.0000 C   0  0  0  0  0  0           0  0  0
   14.0667   -3.8333    0.0000 C   0  0  0  0  0  0           0  0  0
   11.9666   -3.4250    0.0000 H   0  0  0  0  0  0           0  0  0
    6.3458   -6.6875    0.0000 O   0  0  0  0  0  0           0  0  0
   14.8250   -3.4625    0.0000 O   0  0  0  0  0  0           0  0  0
  2 11  2  0     0  0
 12 13  1  0     0  0
  5  6  1  0     0  0
  1  2  1  0     0  0
  6  7  1  0     0  0
  3  4  1  0     0  0
  6  8  2  0     0  0
  4  9  1  0     0  0
  4  5  1  0     0  0
 34 29  1  0     0  0
 20 21  1  0     0  0
 24 25  1  0     0  0
 34 35  1  0     0  0
 28 20  1  0     0  0
 19 35  1  0     0  0
 17 18  1  0     0  0
 19 20  1  0     0  0
 14 15  1  0     0  0
 32 36  1  0     0  0
 16 12  1  0     0  0
 32 37  1  0     0  0
 25 38  1  6     0  0
 12 17  1  0     0  0
 24 39  1  1     0  0
 24 29  1  0     0  0
 25 26  1  0     0  0
 26 27  1  0     0  0
 27 28  1  0     0  0
 28 29  2  0     0  0
 30 31  1  0     0  0
 19 40  1  1     0  0
 23 14  1  0     0  0
 15 16  1  0     0  0
 14 41  1  6     0  0
 21 22  1  0     0  0
 22 23  1  0     0  0
 17 42  1  0     0  0
 23 19  1  0     0  0
 23 43  1  6     0  0
 30 33  1  0     0  0
 31 32  1  0     0  0
 32 25  1  0     0  0
 24 33  1  0     0  0
  4 10  1  0     0  0
 31 44  2  0     0  0
 30  7  1  6     0  0
  2  3  1  0     0  0
 17 45  1  0     0  0
M  END
>  <prID>
742

>  <IDDB>
217992

>  <pIC50_HIV_Integrase>
4.070581074

>  <Q>
-9.419612536

>  <Activity_Integrase>
Inactive_Integrase

NA
NA
NA
NA
$$$$

  Accelrys05311914302D 1   1.00000     0.00000     0

 39 42  0     0  0            999 V2000
    2.0958   -4.5792    0.0000 O   0  0  0  0  0  0           0  0  0
    9.1292   -2.1167    0.0000 C   0  0  0  0  0  0           0  0  0
    7.0042   -2.5458    0.0000 C   0  0  2  0  0  0           0  0  0
    7.7125   -2.1333    0.0000 C   0  0  0  0  0  0           0  0  0
    8.4125   -2.5458    0.0000 C   0  0  0  0  0  0           0  0  0
    9.8167   -2.5458    0.0000 C   0  0  3  0  0  0           0  0  0
   10.5167   -2.1333    0.0000 C   0  0  0  0  0  0           0  0  0
    6.3199   -3.7709    0.0000 C   0  0  1  0  0  0           0  0  0
    6.3199   -4.5917    0.0000 C   0  0  0  0  0  0           0  0  0
    7.7272   -4.5917    0.0000 C   0  0  0  0  0  0           0  0  0
    7.7272   -3.7709    0.0000 C   0  0  0  0  0  0           0  0  0
    7.0111   -3.3583    0.0000 C   0  0  2  0  0  0           0  0  0
    4.2125   -4.9917    0.0000 C   0  0  1  0  0  0           0  0  0
    4.2125   -5.8042    0.0000 C   0  0  1  0  0  0           0  0  0
    4.9120   -6.2125    0.0000 C   0  0  0  0  0  0           0  0  0
    5.6199   -5.8042    0.0000 C   0  0  0  0  0  0           0  0  0
    5.6199   -4.9917    0.0000 C   0  0  0  0  0  0           0  0  0
    4.9120   -4.5791    0.0000 C   0  0  0  0  0  0           0  0  0
    2.8125   -4.9917    0.0000 C   0  0  1  0  0  0           0  0  0
    2.8125   -5.8042    0.0000 C   0  0  1  0  0  0           0  0  0
    3.5120   -6.2125    0.0000 C   0  0  3  0  0  0           0  0  0
    3.5120   -4.5791    0.0000 C   0  0  0  0  0  0           0  0  0
    4.9167   -3.7709    0.0000 C   0  0  0  0  0  0           0  0  0
    5.6204   -3.3583    0.0000 C   0  0  2  0  0  0           0  0  0
    2.8041   -6.6167    0.0000 C   0  0  0  0  0  0           0  0  0
    3.7167   -7.0000    0.0000 C   0  0  0  0  0  0           0  0  0
    4.2125   -6.6167    0.0000 H   0  0  0  0  0  0           0  0  0
    4.2125   -4.1792    0.0000 C   0  0  0  0  0  0           0  0  0
    6.3042   -2.1542    0.0000 C   0  0  0  0  0  0           0  0  0
    9.8167   -3.3583    0.0000 C   0  0  0  0  0  0           0  0  0
    7.7166   -2.9500    0.0000 H   0  0  0  0  0  0           0  0  0
    2.0958   -6.2125    0.0000 O   0  0  0  0  0  0           0  0  0
    9.1250   -1.2917    0.0000 C   0  0  0  0  0  0           0  0  0
    5.5875   -2.6542    0.0000 O   0  0  0  0  0  0           0  0  0
    4.9750   -2.3000    0.0000 C   0  0  0  0  0  0           0  0  0
    4.9708   -1.5917    0.0000 C   0  0  0  0  0  0           0  0  0
    4.3583   -2.6542    0.0000 O   0  0  0  0  0  0           0  0  0
    6.3125   -2.9458    0.0000 C   0  0  0  0  0  0           0  0  0
    8.4375   -5.0042    0.0000 O   0  0  0  0  0  0           0  0  0
  8  9  1  0     0  0
  3  4  1  0     0  0
 21 25  1  0     0  0
  5  2  1  0     0  0
 21 26  1  0     0  0
 14 27  1  6     0  0
  2  6  1  0     0  0
 13 28  1  1     0  0
 13 18  1  0     0  0
 14 15  1  0     0  0
 15 16  1  0     0  0
 16 17  1  0     0  0
 17 18  1  0     0  0
 19 20  1  0     0  0
 12  3  1  0     0  0
  4  5  1  0     0  0
  3 29  1  6     0  0
 10 11  1  0     0  0
 11 12  1  0     0  0
  6 30  1  0     0  0
 12  8  1  0     0  0
 12 31  1  6     0  0
 19 22  1  0     0  0
 20 21  1  0     0  0
 21 14  1  0     0  0
 13 22  1  0     0  0
 20 32  1  1     0  0
 19  1  1  6     0  0
 23 18  2  0     0  0
  2 33  2  0     0  0
  9 10  1  0     0  0
 24 34  1  6     0  0
 13 14  1  0     0  0
 34 35  1  0     0  0
 23 24  1  0     0  0
 35 36  1  0     0  0
 17  9  2  0     0  0
 35 37  2  0     0  0
  8 24  1  0     0  0
  8 38  1  1     0  0
  6  7  1  0     0  0
 10 39  2  0     0  0
M  END
>  <prID>
743

>  <IDDB>
217998

>  <pIC50_HIV_Integrase>
4.397940009

>  <Q>
-5.689991098

>  <Activity_Integrase>
Inactive_Integrase

NA
NA
NA
NA
$$$$

  Accelrys05311914302D 1   1.00000     0.00000     0

 46 49  0     0  0            999 V2000
    0.3167   -5.6750    0.0000 O   0  0  0  0  0  0           0  0  0
    1.0292   -6.0833    0.0000 C   0  0  0  0  0  0           0  0  0
    1.7417   -5.6708    0.0000 C   0  0  0  0  0  0           0  0  0
    2.4542   -6.0792    0.0000 C   0  0  0  0  0  0           0  0  0
    3.1667   -5.6667    0.0000 C   0  0  0  0  0  0           0  0  0
    3.8792   -6.0750    0.0000 O   0  0  0  0  0  0           0  0  0
    3.8792   -4.4417    0.0000 O   0  0  0  0  0  0           0  0  0
   10.9125   -1.9792    0.0000 C   0  0  0  0  0  0           0  0  0
    8.7875   -2.4083    0.0000 C   0  0  2  0  0  0           0  0  0
    9.4959   -1.9958    0.0000 C   0  0  0  0  0  0           0  0  0
   10.1959   -2.4083    0.0000 C   0  0  0  0  0  0           0  0  0
   11.6000   -2.4083    0.0000 C   0  0  3  0  0  0           0  0  0
   12.3000   -1.9958    0.0000 C   0  0  0  0  0  0           0  0  0
    8.1032   -3.6334    0.0000 C   0  0  1  0  0  0           0  0  0
    8.1032   -4.4542    0.0000 C   0  0  0  0  0  0           0  0  0
    9.5105   -4.4542    0.0000 C   0  0  0  0  0  0           0  0  0
    9.5105   -3.6334    0.0000 C   0  0  0  0  0  0           0  0  0
    8.7944   -3.2208    0.0000 C   0  0  2  0  0  0           0  0  0
    5.9959   -4.8542    0.0000 C   0  0  1  0  0  0           0  0  0
    5.9959   -5.6667    0.0000 C   0  0  1  0  0  0           0  0  0
    6.6954   -6.0750    0.0000 C   0  0  0  0  0  0           0  0  0
    7.4032   -5.6667    0.0000 C   0  0  0  0  0  0           0  0  0
    7.4032   -4.8542    0.0000 C   0  0  0  0  0  0           0  0  0
    6.6954   -4.4416    0.0000 C   0  0  0  0  0  0           0  0  0
    4.5959   -4.8542    0.0000 C   0  0  1  0  0  0           0  0  0
    4.5959   -5.6667    0.0000 C   0  0  1  0  0  0           0  0  0
    5.2954   -6.0750    0.0000 C   0  0  3  0  0  0           0  0  0
    5.2954   -4.4416    0.0000 C   0  0  0  0  0  0           0  0  0
    6.7000   -3.6334    0.0000 C   0  0  2  0  0  0           0  0  0
    7.4037   -3.2208    0.0000 C   0  0  2  0  0  0           0  0  0
    4.5875   -6.4792    0.0000 C   0  0  0  0  0  0           0  0  0
    5.5000   -6.8625    0.0000 C   0  0  0  0  0  0           0  0  0
    5.9958   -6.4792    0.0000 H   0  0  0  0  0  0           0  0  0
    5.9958   -4.0417    0.0000 C   0  0  0  0  0  0           0  0  0
    8.0875   -2.0167    0.0000 C   0  0  0  0  0  0           0  0  0
   11.6000   -3.2208    0.0000 C   0  0  0  0  0  0           0  0  0
    9.5000   -2.8125    0.0000 H   0  0  0  0  0  0           0  0  0
   10.9083   -1.1542    0.0000 C   0  0  0  0  0  0           0  0  0
    7.3708   -2.5167    0.0000 O   0  0  0  0  0  0           0  0  0
    8.0958   -2.8083    0.0000 C   0  0  0  0  0  0           0  0  0
    5.9000   -3.1667    0.0000 O   0  0  0  0  0  0           0  0  0
    6.7583   -2.1625    0.0000 C   0  0  0  0  0  0           0  0  0
    6.7542   -1.4542    0.0000 C   0  0  0  0  0  0           0  0  0
    6.1417   -2.5167    0.0000 O   0  0  0  0  0  0           0  0  0
    3.1625   -4.8417    0.0000 O   0  0  0  0  0  0           0  0  0
    1.0250   -6.9083    0.0000 O   0  0  0  0  0  0           0  0  0
 29 30  1  0     0  0
 23 15  1  0     0  0
 14 30  1  0     0  0
 12 13  1  0     0  0
 14 15  1  0     0  0
  9 10  1  0     0  0
 27 31  1  0     0  0
 11  8  1  0     0  0
 27 32  1  0     0  0
 20 33  1  6     0  0
  8 12  1  0     0  0
 19 34  1  1     0  0
 19 24  1  0     0  0
 20 21  1  0     0  0
 21 22  1  0     0  0
 22 23  1  0     0  0
 23 24  2  0     0  0
 25 26  1  0     0  0
 18  9  1  0     0  0
 10 11  1  0     0  0
  9 35  1  6     0  0
 16 17  1  0     0  0
 17 18  1  0     0  0
 12 36  1  0     0  0
 18 14  1  0     0  0
 18 37  1  6     0  0
 25 28  1  0     0  0
 26 27  1  0     0  0
 27 20  1  0     0  0
 19 28  1  0     0  0
 26  6  1  1     0  0
 25  7  1  6     0  0
  3  4  1  0     0  0
  8 38  2  0     0  0
 30 39  1  6     0  0
  4  5  1  0     0  0
 14 40  1  1     0  0
  2  3  1  0     0  0
 29 41  1  1     0  0
  5  6  1  0     0  0
 39 42  1  0     0  0
  1  2  1  0     0  0
 42 43  1  0     0  0
 29 24  1  0     0  0
 42 44  2  0     0  0
 15 16  2  0     0  0
  5 45  2  0     0  0
 19 20  1  0     0  0
  2 46  2  0     0  0
M  END
>  <prID>
744

>  <IDDB>
218009

>  <pIC50_HIV_Integrase>
4.920818754

>  <Q>
-7.790972428

>  <Activity_Integrase>
Inactive_Integrase

NA
NA
NA
NA
$$$$

  Accelrys05311914302D 1   1.00000     0.00000     0

 46 49  0     0  0            999 V2000
    1.6333   -8.2375    0.0000 O   0  0  0  0  0  0           0  0  0
    2.3458   -7.8292    0.0000 C   0  0  0  0  0  0           0  0  0
    3.0583   -8.2417    0.0000 C   0  0  0  0  0  0           0  0  0
    3.7708   -7.8333    0.0000 C   0  0  0  0  0  0           0  0  0
    4.4833   -8.2458    0.0000 C   0  0  0  0  0  0           0  0  0
    5.1958   -7.8375    0.0000 O   0  0  0  0  0  0           0  0  0
    4.4792   -9.0708    0.0000 O   0  0  0  0  0  0           0  0  0
    2.3417   -7.0042    0.0000 O   0  0  0  0  0  0           0  0  0
    5.1958   -9.4708    0.0000 O   0  0  0  0  0  0           0  0  0
   12.2292   -5.3750    0.0000 C   0  0  0  0  0  0           0  0  0
   10.1042   -5.8042    0.0000 C   0  0  2  0  0  0           0  0  0
   10.8125   -5.3917    0.0000 C   0  0  0  0  0  0           0  0  0
   11.5125   -5.8042    0.0000 C   0  0  0  0  0  0           0  0  0
   12.9167   -5.8042    0.0000 C   0  0  3  0  0  0           0  0  0
   13.6167   -5.3917    0.0000 C   0  0  0  0  0  0           0  0  0
    9.4199   -7.0292    0.0000 C   0  0  1  0  0  0           0  0  0
    9.4199   -7.8500    0.0000 C   0  0  0  0  0  0           0  0  0
   10.8272   -7.8500    0.0000 C   0  0  0  0  0  0           0  0  0
   10.8272   -7.0292    0.0000 C   0  0  0  0  0  0           0  0  0
   10.1111   -6.6167    0.0000 C   0  0  2  0  0  0           0  0  0
    7.3125   -8.2500    0.0000 C   0  0  1  0  0  0           0  0  0
    7.3125   -9.0625    0.0000 C   0  0  1  0  0  0           0  0  0
    8.0120   -9.4708    0.0000 C   0  0  0  0  0  0           0  0  0
    8.7199   -9.0625    0.0000 C   0  0  0  0  0  0           0  0  0
    8.7199   -8.2500    0.0000 C   0  0  0  0  0  0           0  0  0
    8.0120   -7.8375    0.0000 C   0  0  0  0  0  0           0  0  0
    5.9125   -8.2500    0.0000 C   0  0  1  0  0  0           0  0  0
    5.9125   -9.0625    0.0000 C   0  0  1  0  0  0           0  0  0
    6.6120   -9.4708    0.0000 C   0  0  3  0  0  0           0  0  0
    6.6120   -7.8375    0.0000 C   0  0  0  0  0  0           0  0  0
    8.0167   -7.0292    0.0000 C   0  0  2  0  0  0           0  0  0
    8.7204   -6.6167    0.0000 C   0  0  2  0  0  0           0  0  0
    5.9041   -9.8750    0.0000 C   0  0  0  0  0  0           0  0  0
    6.8167  -10.2584    0.0000 C   0  0  0  0  0  0           0  0  0
    7.3125   -9.8750    0.0000 H   0  0  0  0  0  0           0  0  0
    7.3125   -7.4375    0.0000 C   0  0  0  0  0  0           0  0  0
    9.4042   -5.4125    0.0000 C   0  0  0  0  0  0           0  0  0
   12.9167   -6.6167    0.0000 C   0  0  0  0  0  0           0  0  0
   10.8166   -6.2083    0.0000 H   0  0  0  0  0  0           0  0  0
   12.2250   -4.5500    0.0000 C   0  0  0  0  0  0           0  0  0
    8.6875   -5.9125    0.0000 O   0  0  0  0  0  0           0  0  0
    9.4125   -6.2042    0.0000 C   0  0  0  0  0  0           0  0  0
    7.2167   -6.5625    0.0000 O   0  0  0  0  0  0           0  0  0
    8.0750   -5.5583    0.0000 C   0  0  0  0  0  0           0  0  0
    8.0708   -4.8500    0.0000 C   0  0  0  0  0  0           0  0  0
    7.4583   -5.9125    0.0000 O   0  0  0  0  0  0           0  0  0
  3  4  1  0     0  0
 31 26  1  0     0  0
 17 18  2  0     0  0
 21 22  1  0     0  0
 31 32  1  0     0  0
 25 17  1  0     0  0
 16 32  1  0     0  0
 14 15  1  0     0  0
 16 17  1  0     0  0
 11 12  1  0     0  0
 29 33  1  0     0  0
 13 10  1  0     0  0
 29 34  1  0     0  0
 22 35  1  6     0  0
 10 14  1  0     0  0
 21 36  1  1     0  0
 21 26  1  0     0  0
 22 23  1  0     0  0
 23 24  1  0     0  0
 24 25  1  0     0  0
 25 26  2  0     0  0
 27 28  1  0     0  0
 20 11  1  0     0  0
 12 13  1  0     0  0
 11 37  1  6     0  0
 18 19  1  0     0  0
 19 20  1  0     0  0
 14 38  1  0     0  0
 20 16  1  0     0  0
 20 39  1  6     0  0
 27 30  1  0     0  0
 28 29  1  0     0  0
 29 22  1  0     0  0
 21 30  1  0     0  0
 28  9  1  1     0  0
 27  6  1  6     0  0
  2  8  2  0     0  0
 10 40  2  0     0  0
 32 41  1  6     0  0
  4  5  1  0     0  0
 16 42  1  1     0  0
  2  3  1  0     0  0
 31 43  1  1     0  0
  5  6  1  0     0  0
 41 44  1  0     0  0
  1  2  1  0     0  0
 44 45  1  0     0  0
  5  7  2  0     0  0
 44 46  2  0     0  0
M  END
>  <prID>
745

>  <IDDB>
218010

>  <pIC50_HIV_Integrase>
4.920818754

>  <Q>
-7.804545327

>  <Activity_Integrase>
Inactive_Integrase

NA
NA
NA
NA
$$$$

  Accelrys05311914302D 1   1.00000     0.00000     0

 47 50  0     0  0            999 V2000
    5.7333   -1.9583    0.0000 O   0  0  0  0  0  0           0  0  0
    3.5958   -2.3750    0.0000 N   0  0  0  0  0  0           0  0  0
    4.3083   -1.9625    0.0000 C   0  0  0  0  0  0           0  0  0
    5.0208   -2.3708    0.0000 C   0  0  0  0  0  0           0  0  0
    5.0167   -3.1958    0.0000 O   0  0  0  0  0  0           0  0  0
    6.3167   -4.3458    0.0000 O   0  0  0  0  0  0           0  0  0
    4.1792   -3.9292    0.0000 N   0  0  0  0  0  0           0  0  0
    4.8917   -4.3417    0.0000 C   0  0  0  0  0  0           0  0  0
    5.6042   -3.9333    0.0000 C   0  0  0  0  0  0           0  0  0
    5.6000   -3.1083    0.0000 O   0  0  0  0  0  0           0  0  0
   13.8542    0.0917    0.0000 C   0  0  0  0  0  0           0  0  0
   11.7292   -0.3375    0.0000 C   0  0  2  0  0  0           0  0  0
   12.4375    0.0750    0.0000 C   0  0  0  0  0  0           0  0  0
   13.1375   -0.3375    0.0000 C   0  0  0  0  0  0           0  0  0
   14.5417   -0.3375    0.0000 C   0  0  3  0  0  0           0  0  0
   15.2417    0.0750    0.0000 C   0  0  0  0  0  0           0  0  0
   11.0449   -1.5625    0.0000 C   0  0  1  0  0  0           0  0  0
   11.0449   -2.3834    0.0000 C   0  0  0  0  0  0           0  0  0
   12.4522   -2.3834    0.0000 C   0  0  0  0  0  0           0  0  0
   12.4522   -1.5625    0.0000 C   0  0  0  0  0  0           0  0  0
   11.7361   -1.1500    0.0000 C   0  0  2  0  0  0           0  0  0
    8.9375   -2.7833    0.0000 C   0  0  1  0  0  0           0  0  0
    8.9375   -3.5958    0.0000 C   0  0  1  0  0  0           0  0  0
    9.6370   -4.0041    0.0000 C   0  0  0  0  0  0           0  0  0
   10.3449   -3.5958    0.0000 C   0  0  0  0  0  0           0  0  0
   10.3449   -2.7833    0.0000 C   0  0  0  0  0  0           0  0  0
    9.6370   -2.3708    0.0000 C   0  0  0  0  0  0           0  0  0
    7.5375   -2.7833    0.0000 C   0  0  1  0  0  0           0  0  0
    7.5375   -3.5958    0.0000 C   0  0  1  0  0  0           0  0  0
    8.2370   -4.0041    0.0000 C   0  0  3  0  0  0           0  0  0
    8.2370   -2.3708    0.0000 C   0  0  0  0  0  0           0  0  0
    9.6417   -1.5625    0.0000 C   0  0  2  0  0  0           0  0  0
   10.3454   -1.1500    0.0000 C   0  0  2  0  0  0           0  0  0
    7.5541   -4.5542    0.0000 C   0  0  0  0  0  0           0  0  0
    8.4417   -4.7917    0.0000 C   0  0  0  0  0  0           0  0  0
    8.9375   -4.4083    0.0000 H   0  0  0  0  0  0           0  0  0
    8.9375   -1.9708    0.0000 C   0  0  0  0  0  0           0  0  0
   11.0292    0.0542    0.0000 C   0  0  0  0  0  0           0  0  0
   14.5417   -1.1500    0.0000 C   0  0  0  0  0  0           0  0  0
   12.4416   -0.7416    0.0000 H   0  0  0  0  0  0           0  0  0
   13.8500    0.9167    0.0000 C   0  0  0  0  0  0           0  0  0
   10.3125   -0.4458    0.0000 O   0  0  0  0  0  0           0  0  0
   11.0375   -0.7375    0.0000 C   0  0  0  0  0  0           0  0  0
    8.8417   -1.0958    0.0000 O   0  0  0  0  0  0           0  0  0
    9.7000   -0.0917    0.0000 C   0  0  0  0  0  0           0  0  0
    9.6958    0.6167    0.0000 C   0  0  0  0  0  0           0  0  0
    9.0833   -0.4458    0.0000 O   0  0  0  0  0  0           0  0  0
  3  4  1  0     0  0
  4  1  1  0     0  0
 32 27  1  0     0  0
 18 19  2  0     0  0
 22 23  1  0     0  0
 32 33  1  0     0  0
 26 18  1  0     0  0
 17 33  1  0     0  0
 15 16  1  0     0  0
 17 18  1  0     0  0
 12 13  1  0     0  0
 30 34  1  0     0  0
 14 11  1  0     0  0
 30 35  1  0     0  0
 23 36  1  6     0  0
 11 15  1  0     0  0
 22 37  1  1     0  0
 22 27  1  0     0  0
 23 24  1  0     0  0
 24 25  1  0     0  0
 25 26  1  0     0  0
 26 27  2  0     0  0
 28 29  1  0     0  0
 21 12  1  0     0  0
 13 14  1  0     0  0
 12 38  1  6     0  0
 19 20  1  0     0  0
 20 21  1  0     0  0
 15 39  1  0     0  0
 21 17  1  0     0  0
 21 40  1  6     0  0
 28 31  1  0     0  0
 29 30  1  0     0  0
 30 23  1  0     0  0
 22 31  1  0     0  0
 29  6  1  1     0  0
 28  1  1  6     0  0
  7  8  1  0     0  0
 11 41  2  0     0  0
  2  3  1  0     0  0
 33 42  1  6     0  0
  8  9  1  0     0  0
 17 43  1  1     0  0
  9  6  1  0     0  0
 32 44  1  1     0  0
  4  5  2  0     0  0
 42 45  1  0     0  0
  9 10  2  0     0  0
 45 46  1  0     0  0
 45 47  2  0     0  0
M  END
>  <prID>
746

>  <IDDB>
218018

>  <pIC50_HIV_Integrase>
4.93930216

>  <Q>
-8.944729057

>  <Activity_Integrase>
Inactive_Integrase

NA
NA
NA
NA
$$$$

  Accelrys05311914302D 1   1.00000     0.00000     0

 31 33  0     0  0            999 V2000
   10.6924   -6.7269    0.0000 C   0  0  1  0  0  0           0  0  0
   11.5126   -6.8158    0.0000 C   0  0  0  0  0  0           0  0  0
   11.8524   -6.0639    0.0000 C   0  0  0  0  0  0           0  0  0
   11.2395   -5.5079    0.0000 C   0  0  1  0  0  0           0  0  0
   10.5259   -5.9201    0.0000 C   0  0  2  0  0  0           0  0  0
    8.0662   -7.7642    0.0000 C   0  0  0  0  0  0           0  0  0
    8.8489   -8.0250    0.0000 C   0  0  1  0  0  0           0  0  0
    9.3404   -7.3622    0.0000 C   0  0  2  0  0  0           0  0  0
    8.8592   -6.6889    0.0000 C   0  0  2  0  0  0           0  0  0
    8.0745   -6.9405    0.0000 C   0  0  0  0  0  0           0  0  0
    9.0275   -5.9068    0.0000 C   0  0  0  0  0  0           0  0  0
    9.7720   -5.5604    0.0000 C   0  0  0  0  0  0           0  0  0
   10.1695   -7.3679    0.0000 C   0  0  0  0  0  0           0  0  0
    7.3541   -6.5250    0.0000 O   0  0  0  0  0  0           0  0  0
    8.2583   -8.6042    0.0000 C   0  0  0  0  0  0           0  0  0
    9.2541   -8.7334    0.0000 O   0  0  0  0  0  0           0  0  0
    9.7458   -8.0709    0.0000 H   0  0  0  0  0  0           0  0  0
   10.3083   -5.1167    0.0000 H   0  0  0  0  0  0           0  0  0
   11.1000   -7.4375    0.0000 C   0  0  0  0  0  0           0  0  0
   11.2333   -4.6792    0.0000 C   0  0  2  0  0  0           0  0  0
   11.9458   -4.2625    0.0000 C   0  0  0  0  0  0           0  0  0
   12.5291   -4.8459    0.0000 C   0  0  0  0  0  0           0  0  0
   12.2083   -5.6834    0.0000 C   0  0  0  0  0  0           0  0  0
   12.7708   -6.2459    0.0000 C   0  0  0  0  0  0           0  0  0
   12.5208   -6.9625    0.0000 C   0  0  0  0  0  0           0  0  0
   13.5833   -6.2459    0.0000 C   0  0  0  0  0  0           0  0  0
   10.5166   -4.2667    0.0000 C   0  0  0  0  0  0           0  0  0
    8.4416   -5.9709    0.0000 H   0  0  0  0  0  0           0  0  0
    8.4375   -5.3167    0.0000 C   0  0  0  0  0  0           0  0  0
    7.6375   -5.5292    0.0000 O   0  0  0  0  0  0           0  0  0
   11.9500   -5.0875    0.0000 H   0  0  0  0  0  0           0  0  0
 10 14  2  0     0  0
  2  3  1  0     0  0
  7 15  1  1     0  0
  3  4  1  0     0  0
  7 16  1  6     0  0
  4  5  1  0     0  0
  8 17  1  1     0  0
  7  8  1  0     0  0
  5 18  1  6     0  0
  8  9  1  0     0  0
  1 19  1  1     0  0
  9 10  1  0     0  0
  4 20  1  0     0  0
 10  6  1  0     0  0
 20 21  1  0     0  0
  5  1  1  0     0  0
 21 22  1  0     0  0
  6  7  1  0     0  0
 22 23  1  0     0  0
 11 12  2  0     0  0
 23 24  2  0     0  0
 12  5  1  0     0  0
 24 25  1  0     0  0
 11  9  1  0     0  0
 24 26  1  0     0  0
  1  2  1  0     0  0
 20 27  1  1     0  0
  1 13  1  0     0  0
  9 28  1  1     0  0
  8 13  1  0     0  0
 11 29  1  0     0  0
 29 30  2  0     0  0
  4 31  1  6     0  0
M  END
>  <prID>
747

>  <IDDB>
218111

>  <pIC50_HIV_Integrase>
4.48148606

>  <Q>
-3.988373502

>  <Activity_Integrase>
Inactive_Integrase

NA
NA
NA
NA
$$$$

  Accelrys05311914302D 1   1.00000     0.00000     0

 18 19  0     0  0            999 V2000
    3.2377   -6.9509    0.0000 C   0  0  0  0  0  0           0  0  0
    4.0228   -7.2045    0.0000 N   0  0  3  0  0  0           0  0  0
    4.5082   -6.5373    0.0000 C   0  0  0  0  0  0           0  0  0
    4.0209   -5.8684    0.0000 C   0  0  0  0  0  0           0  0  0
    3.2385   -6.1271    0.0000 C   0  0  0  0  0  0           0  0  0
    1.8069   -6.1250    0.0000 C   0  0  0  0  0  0           0  0  0
    1.8057   -6.9523    0.0000 C   0  0  0  0  0  0           0  0  0
    2.5206   -7.3652    0.0000 C   0  0  0  0  0  0           0  0  0
    2.5188   -5.7122    0.0000 C   0  0  0  0  0  0           0  0  0
    5.3292   -6.5333    0.0000 C   0  0  0  0  0  0           0  0  0
    5.9125   -5.9458    0.0000 C   0  0  0  0  0  0           0  0  0
    6.7375   -5.9458    0.0000 C   0  0  0  0  0  0           0  0  0
    7.1458   -5.2292    0.0000 C   0  0  0  0  0  0           0  0  0
    7.9708   -5.2292    0.0000 O   0  0  0  0  0  0           0  0  0
    6.7292   -4.5125    0.0000 O   0  0  0  0  0  0           0  0  0
    7.1458   -6.6583    0.0000 O   0  0  0  0  0  0           0  0  0
    5.7375   -7.2458    0.0000 O   0  0  0  0  0  0           0  0  0
    4.2333   -8.0000    0.0000 C   0  0  0  0  0  0           0  0  0
  5  9  2  0     0  0
  9  6  1  0     0  0
  4  5  1  0     0  0
  3 10  1  0     0  0
  5  1  1  0     0  0
 10 11  1  0     0  0
  1  2  1  0     0  0
 11 12  2  0     0  0
 12 13  1  0     0  0
  6  7  2  0     0  0
 13 14  1  0     0  0
  2  3  1  0     0  0
 13 15  2  0     0  0
  7  8  1  0     0  0
 12 16  1  0     0  0
  8  1  2  0     0  0
 10 17  2  0     0  0
  3  4  2  0     0  0
  2 18  1  0     0  0
M  END
>  <prID>
748

>  <IDDB>
219897

>  <pIC50_HIV_Integrase>
5.22184875

>  <Q>
-0.407249432

>  <Activity_Integrase>
Inactive_Integrase

NA
NA
NA
NA
$$$$

  Accelrys05311914302D 1   1.00000     0.00000     0

 21 23  0     0  0            999 V2000
    1.0110   -7.1808    0.0000 O   0  0  0  0  0  0           0  0  0
    1.8042   -6.9538    0.0000 C   0  0  0  0  0  0           0  0  0
    1.8353   -6.1292    0.0000 C   0  0  0  0  0  0           0  0  0
    1.0579   -5.8455    0.0000 O   0  0  0  0  0  0           0  0  0
    0.5525   -6.4964    0.0000 C   0  0  0  0  0  0           0  0  0
    3.2377   -6.9509    0.0000 C   0  0  0  0  0  0           0  0  0
    4.0228   -7.2045    0.0000 N   0  0  3  0  0  0           0  0  0
    4.5082   -6.5373    0.0000 C   0  0  0  0  0  0           0  0  0
    4.0209   -5.8684    0.0000 C   0  0  0  0  0  0           0  0  0
    3.2385   -6.1271    0.0000 C   0  0  0  0  0  0           0  0  0
    2.5206   -7.3652    0.0000 C   0  0  0  0  0  0           0  0  0
    2.5188   -5.7122    0.0000 C   0  0  0  0  0  0           0  0  0
    5.3292   -6.5333    0.0000 C   0  0  0  0  0  0           0  0  0
    5.9125   -5.9458    0.0000 C   0  0  0  0  0  0           0  0  0
    6.7375   -5.9458    0.0000 C   0  0  0  0  0  0           0  0  0
    7.1458   -5.2292    0.0000 C   0  0  0  0  0  0           0  0  0
    7.9708   -5.2292    0.0000 O   0  0  0  0  0  0           0  0  0
    6.7292   -4.5125    0.0000 O   0  0  0  0  0  0           0  0  0
    7.1458   -6.6583    0.0000 O   0  0  0  0  0  0           0  0  0
    5.7375   -7.2458    0.0000 O   0  0  0  0  0  0           0  0  0
    4.2333   -8.0000    0.0000 C   0  0  0  0  0  0           0  0  0
  5  1  1  0     0  0
  2 11  1  0     0  0
 11  6  2  0     0  0
  6  7  1  0     0  0
 10 12  2  0     0  0
 12  3  1  0     0  0
  1  2  1  0     0  0
  8 13  1  0     0  0
 13 14  1  0     0  0
  2  3  2  0     0  0
 14 15  2  0     0  0
  3  4  1  0     0  0
 15 16  1  0     0  0
  4  5  1  0     0  0
 16 17  1  0     0  0
  7  8  1  0     0  0
 16 18  2  0     0  0
  8  9  2  0     0  0
 15 19  1  0     0  0
  9 10  1  0     0  0
 13 20  2  0     0  0
 10  6  1  0     0  0
  7 21  1  0     0  0
M  END
>  <prID>
749

>  <IDDB>
219898

>  <pIC50_HIV_Integrase>
5.698970004

>  <Q>
-1.295354648

>  <Activity_Integrase>
Inactive_Integrase

NA
NA
NA
NA
$$$$

  Accelrys05311914302D 1   1.00000     0.00000     0

 19 20  0     0  0            999 V2000
    1.8042   -6.9538    0.0000 C   0  0  0  0  0  0           0  0  0
    1.8353   -6.1292    0.0000 C   0  0  0  0  0  0           0  0  0
    3.2377   -6.9509    0.0000 C   0  0  0  0  0  0           0  0  0
    4.0228   -7.2045    0.0000 N   0  0  3  0  0  0           0  0  0
    4.5082   -6.5373    0.0000 C   0  0  0  0  0  0           0  0  0
    4.0209   -5.8684    0.0000 C   0  0  0  0  0  0           0  0  0
    3.2385   -6.1271    0.0000 C   0  0  0  0  0  0           0  0  0
    2.5206   -7.3652    0.0000 C   0  0  0  0  0  0           0  0  0
    2.5188   -5.7122    0.0000 C   0  0  0  0  0  0           0  0  0
    5.3292   -6.5333    0.0000 C   0  0  0  0  0  0           0  0  0
    5.9125   -5.9458    0.0000 C   0  0  0  0  0  0           0  0  0
    6.7375   -5.9458    0.0000 C   0  0  0  0  0  0           0  0  0
    7.1458   -5.2292    0.0000 C   0  0  0  0  0  0           0  0  0
    7.9708   -5.2292    0.0000 O   0  0  0  0  0  0           0  0  0
    6.7292   -4.5125    0.0000 O   0  0  0  0  0  0           0  0  0
    7.1458   -6.6583    0.0000 O   0  0  0  0  0  0           0  0  0
    5.7375   -7.2458    0.0000 O   0  0  0  0  0  0           0  0  0
    4.2333   -8.0000    0.0000 C   0  0  0  0  0  0           0  0  0
    5.0292   -8.2125    0.0000 C   0  0  0  0  0  0           0  0  0
  9  2  1  0     0  0
  1  2  2  0     0  0
  5 10  1  0     0  0
  4  5  1  0     0  0
 10 11  1  0     0  0
  5  6  2  0     0  0
 11 12  2  0     0  0
  6  7  1  0     0  0
 12 13  1  0     0  0
  7  3  1  0     0  0
 13 14  1  0     0  0
  3  4  1  0     0  0
 13 15  2  0     0  0
  1  8  1  0     0  0
 12 16  1  0     0  0
  8  3  2  0     0  0
 10 17  2  0     0  0
  4 18  1  0     0  0
  7  9  2  0     0  0
 18 19  1  0     0  0
M  END
>  <prID>
750

>  <IDDB>
219899

>  <pIC50_HIV_Integrase>
5.795880017

>  <Q>
-0.983712252

>  <Activity_Integrase>
Inactive_Integrase

NA
NA
NA
NA
$$$$

  Accelrys05311914302D 1   1.00000     0.00000     0

 22 24  0     0  0            999 V2000
    1.2277  -10.0849    0.0000 O   0  0  0  0  0  0           0  0  0
    2.0208   -9.8579    0.0000 C   0  0  0  0  0  0           0  0  0
    2.0519   -9.0334    0.0000 C   0  0  0  0  0  0           0  0  0
    1.2745   -8.7496    0.0000 O   0  0  0  0  0  0           0  0  0
    0.7691   -9.4006    0.0000 C   0  0  0  0  0  0           0  0  0
    3.4544   -9.8550    0.0000 C   0  0  0  0  0  0           0  0  0
    4.2395  -10.1087    0.0000 N   0  0  3  0  0  0           0  0  0
    4.7249   -9.4414    0.0000 C   0  0  0  0  0  0           0  0  0
    4.2376   -8.7725    0.0000 C   0  0  0  0  0  0           0  0  0
    3.4552   -9.0312    0.0000 C   0  0  0  0  0  0           0  0  0
    2.7372  -10.2694    0.0000 C   0  0  0  0  0  0           0  0  0
    2.7354   -8.6164    0.0000 C   0  0  0  0  0  0           0  0  0
    5.5458   -9.4375    0.0000 C   0  0  0  0  0  0           0  0  0
    6.1292   -8.8500    0.0000 C   0  0  0  0  0  0           0  0  0
    6.9542   -8.8500    0.0000 C   0  0  0  0  0  0           0  0  0
    7.3625   -8.1333    0.0000 C   0  0  0  0  0  0           0  0  0
    8.1875   -8.1333    0.0000 O   0  0  0  0  0  0           0  0  0
    6.9458   -7.4167    0.0000 O   0  0  0  0  0  0           0  0  0
    7.3625   -9.5625    0.0000 O   0  0  0  0  0  0           0  0  0
    5.9542  -10.1500    0.0000 O   0  0  0  0  0  0           0  0  0
    4.4500  -10.9042    0.0000 C   0  0  0  0  0  0           0  0  0
    5.2458  -11.1167    0.0000 C   0  0  0  0  0  0           0  0  0
  2 11  1  0     0  0
 11  6  2  0     0  0
  6  7  1  0     0  0
 10 12  2  0     0  0
 12  3  1  0     0  0
  1  2  1  0     0  0
  8 13  1  0     0  0
 13 14  1  0     0  0
  2  3  2  0     0  0
 14 15  2  0     0  0
  3  4  1  0     0  0
 15 16  1  0     0  0
  4  5  1  0     0  0
 16 17  1  0     0  0
  7  8  1  0     0  0
 16 18  2  0     0  0
  8  9  2  0     0  0
 15 19  1  0     0  0
  9 10  1  0     0  0
 13 20  2  0     0  0
 10  6  1  0     0  0
  7 21  1  0     0  0
  5  1  1  0     0  0
 21 22  1  0     0  0
M  END
>  <prID>
751

>  <IDDB>
219900

>  <pIC50_HIV_Integrase>
5.301029996

>  <Q>
-1.87181031

>  <Activity_Integrase>
Inactive_Integrase

NA
NA
NA
NA
$$$$

  Accelrys05311914302D 1   1.00000     0.00000     0

 24 26  0     0  0            999 V2000
    2.1152  -10.6791    0.0000 C   0  0  0  0  0  0           0  0  0
    2.1141  -11.5065    0.0000 C   0  0  0  0  0  0           0  0  0
    2.8289  -11.9194    0.0000 C   0  0  0  0  0  0           0  0  0
    3.5453  -11.5060    0.0000 C   0  0  0  0  0  0           0  0  0
    3.5425  -10.6755    0.0000 C   0  0  0  0  0  0           0  0  0
    2.8271  -10.2664    0.0000 C   0  0  0  0  0  0           0  0  0
   -0.9125   -9.0163    0.0000 C   0  0  0  0  0  0           0  0  0
   -0.8814   -8.1917    0.0000 C   0  0  0  0  0  0           0  0  0
    0.5211   -9.0134    0.0000 C   0  0  0  0  0  0           0  0  0
    1.3061   -9.2670    0.0000 N   0  0  3  0  0  0           0  0  0
    1.7915   -8.5998    0.0000 C   0  0  0  0  0  0           0  0  0
    1.3043   -7.9309    0.0000 C   0  0  0  0  0  0           0  0  0
    0.5218   -8.1896    0.0000 C   0  0  0  0  0  0           0  0  0
   -0.1961   -9.4277    0.0000 C   0  0  0  0  0  0           0  0  0
   -0.1979   -7.7747    0.0000 C   0  0  0  0  0  0           0  0  0
    2.6125   -8.5958    0.0000 C   0  0  0  0  0  0           0  0  0
    3.1958   -8.0083    0.0000 C   0  0  0  0  0  0           0  0  0
    4.0208   -8.0083    0.0000 C   0  0  0  0  0  0           0  0  0
    4.4292   -7.2917    0.0000 C   0  0  0  0  0  0           0  0  0
    5.2542   -7.2917    0.0000 O   0  0  0  0  0  0           0  0  0
    4.0125   -6.5750    0.0000 O   0  0  0  0  0  0           0  0  0
    4.4292   -8.7208    0.0000 O   0  0  0  0  0  0           0  0  0
    3.0208   -9.3083    0.0000 O   0  0  0  0  0  0           0  0  0
    1.3042  -10.2083    0.0000 C   0  0  0  0  0  0           0  0  0
 12 13  1  0     0  0
 13  9  1  0     0  0
  1  2  2  0     0  0
  7 14  1  0     0  0
 14  9  2  0     0  0
  3  4  2  0     0  0
 13 15  2  0     0  0
 15  8  1  0     0  0
  7  8  2  0     0  0
 11 16  1  0     0  0
  9 10  1  0     0  0
 16 17  1  0     0  0
 17 18  2  0     0  0
  4  5  1  0     0  0
 18 19  1  0     0  0
  2  3  1  0     0  0
 19 20  1  0     0  0
  5  6  2  0     0  0
 19 21  2  0     0  0
  6  1  1  0     0  0
 18 22  1  0     0  0
 10 11  1  0     0  0
 16 23  2  0     0  0
 11 12  2  0     0  0
 10 24  1  0     0  0
 24  1  1  0     0  0
M  END
>  <prID>
752

>  <IDDB>
219901

>  <pIC50_HIV_Integrase>
6

>  <Q>
-0.032921777

>  <Activity_Integrase>
Inactive_Integrase

NA
NA
NA
NA
$$$$

  Accelrys05311914302D 1   1.00000     0.00000     0

 27 30  0     0  0            999 V2000
    8.1694   -9.2416    0.0000 C   0  0  0  0  0  0           0  0  0
    8.1682  -10.0690    0.0000 C   0  0  0  0  0  0           0  0  0
    8.8831  -10.4819    0.0000 C   0  0  0  0  0  0           0  0  0
    9.5995  -10.0685    0.0000 C   0  0  0  0  0  0           0  0  0
    9.5966   -9.2380    0.0000 C   0  0  0  0  0  0           0  0  0
    8.8813   -8.8289    0.0000 C   0  0  0  0  0  0           0  0  0
    7.3603   -7.8295    0.0000 N   0  0  3  0  0  0           0  0  0
    7.3583   -8.7708    0.0000 C   0  0  0  0  0  0           0  0  0
    4.3485   -7.8058    0.0000 O   0  0  0  0  0  0           0  0  0
    5.1417   -7.5788    0.0000 C   0  0  0  0  0  0           0  0  0
    5.1728   -6.7542    0.0000 C   0  0  0  0  0  0           0  0  0
    4.3954   -6.4705    0.0000 O   0  0  0  0  0  0           0  0  0
    3.8900   -7.1214    0.0000 C   0  0  0  0  0  0           0  0  0
    6.5752   -7.5759    0.0000 C   0  0  0  0  0  0           0  0  0
    7.8457   -7.1623    0.0000 C   0  0  0  0  0  0           0  0  0
    7.3584   -6.4934    0.0000 C   0  0  0  0  0  0           0  0  0
    6.5760   -6.7521    0.0000 C   0  0  0  0  0  0           0  0  0
    5.8581   -7.9902    0.0000 C   0  0  0  0  0  0           0  0  0
    5.8563   -6.3372    0.0000 C   0  0  0  0  0  0           0  0  0
    8.6667   -7.1583    0.0000 C   0  0  0  0  0  0           0  0  0
    9.2500   -6.5708    0.0000 C   0  0  0  0  0  0           0  0  0
   10.0750   -6.5708    0.0000 C   0  0  0  0  0  0           0  0  0
   10.4833   -5.8542    0.0000 C   0  0  0  0  0  0           0  0  0
   11.3083   -5.8542    0.0000 O   0  0  0  0  0  0           0  0  0
   10.0667   -5.1375    0.0000 O   0  0  0  0  0  0           0  0  0
   10.4833   -7.2833    0.0000 O   0  0  0  0  0  0           0  0  0
    9.0750   -7.8708    0.0000 O   0  0  0  0  0  0           0  0  0
 14  7  1  0     0  0
  1  2  2  0     0  0
  3  4  2  0     0  0
  7  8  1  0     0  0
  8  1  1  0     0  0
  7 15  1  0     0  0
 15 16  2  0     0  0
 16 17  1  0     0  0
 17 14  1  0     0  0
  9 10  1  0     0  0
 10 18  1  0     0  0
 18 14  2  0     0  0
 17 19  2  0     0  0
 19 11  1  0     0  0
  4  5  1  0     0  0
 15 20  1  0     0  0
  2  3  1  0     0  0
 20 21  1  0     0  0
  5  6  2  0     0  0
 21 22  2  0     0  0
  6  1  1  0     0  0
 22 23  1  0     0  0
 10 11  2  0     0  0
 23 24  1  0     0  0
 11 12  1  0     0  0
 23 25  2  0     0  0
 12 13  1  0     0  0
 22 26  1  0     0  0
 13  9  1  0     0  0
 20 27  2  0     0  0
M  END
>  <prID>
753

>  <IDDB>
219902

>  <pIC50_HIV_Integrase>
5.698970004

>  <Q>
-0.921019235

>  <Activity_Integrase>
Inactive_Integrase

NA
NA
NA
NA
$$$$

  Accelrys05311914302D 1   1.00000     0.00000     0

 18 19  0     0  0            999 V2000
    1.5289  -13.5432    0.0000 C   0  0  0  0  0  0           0  0  0
    1.5649  -12.7189    0.0000 C   0  0  0  0  0  0           0  0  0
    2.9625  -13.5488    0.0000 C   0  0  0  0  0  0           0  0  0
    3.7460  -13.8070    0.0000 N   0  0  3  0  0  0           0  0  0
    4.2354  -13.1427    0.0000 C   0  0  0  0  0  0           0  0  0
    3.7521  -12.4709    0.0000 C   0  0  0  0  0  0           0  0  0
    2.9681  -12.7250    0.0000 C   0  0  0  0  0  0           0  0  0
    2.2428  -13.9589    0.0000 C   0  0  0  0  0  0           0  0  0
    2.2508  -12.3059    0.0000 C   0  0  0  0  0  0           0  0  0
    3.9593  -14.6442    0.0000 C   0  0  0  0  0  0           0  0  0
    3.9692  -11.6705    0.0000 C   0  0  0  0  0  0           0  0  0
    3.5428  -10.9622    0.0000 C   0  0  0  0  0  0           0  0  0
    3.7465  -10.1627    0.0000 C   0  0  0  0  0  0           0  0  0
    3.1528   -9.5901    0.0000 C   0  0  0  0  0  0           0  0  0
    3.3565   -8.7907    0.0000 O   0  0  0  0  0  0           0  0  0
    2.3555   -9.8170    0.0000 O   0  0  0  0  0  0           0  0  0
    4.5377   -9.9430    0.0000 O   0  0  0  0  0  0           0  0  0
    4.7594  -11.4527    0.0000 O   0  0  0  0  0  0           0  0  0
  7  9  2  0     0  0
  9  2  1  0     0  0
  1  2  2  0     0  0
  4 10  1  0     0  0
  4  5  1  0     0  0
  6 11  1  0     0  0
  5  6  2  0     0  0
 11 12  1  0     0  0
  6  7  1  0     0  0
 12 13  2  0     0  0
  7  3  1  0     0  0
 13 14  1  0     0  0
  3  4  1  0     0  0
 14 15  1  0     0  0
  1  8  1  0     0  0
 14 16  2  0     0  0
  8  3  2  0     0  0
 13 17  1  0     0  0
 11 18  2  0     0  0
M  END
>  <prID>
754

>  <IDDB>
219903

>  <pIC50_HIV_Integrase>
5.698970004

>  <Q>
-0.146524026

>  <Activity_Integrase>
Inactive_Integrase

NA
NA
NA
NA
$$$$

  Accelrys05311914302D 1   1.00000     0.00000     0

 21 23  0     0  0            999 V2000
   -1.4699  -13.9913    0.0000 O   0  0  0  0  0  0           0  0  0
   -1.4064  -12.7393    0.0000 O   0  0  0  0  0  0           0  0  0
   -1.9285  -13.3069    0.0000 C   0  0  0  0  0  0           0  0  0
   -0.6809  -12.9397    0.0000 C   0  0  0  0  0  0           0  0  0
   -0.6518  -13.7855    0.0000 C   0  0  0  0  0  0           0  0  0
    0.7166  -13.7696    0.0000 C   0  0  0  0  0  0           0  0  0
    1.5002  -14.0279    0.0000 N   0  0  3  0  0  0           0  0  0
    1.9895  -13.3635    0.0000 C   0  0  0  0  0  0           0  0  0
    1.5062  -12.6917    0.0000 C   0  0  0  0  0  0           0  0  0
    0.7222  -12.9458    0.0000 C   0  0  0  0  0  0           0  0  0
   -0.0030  -14.1797    0.0000 C   0  0  0  0  0  0           0  0  0
    0.0050  -12.5267    0.0000 C   0  0  0  0  0  0           0  0  0
    1.7135  -14.8650    0.0000 C   0  0  0  0  0  0           0  0  0
    1.7233  -11.8913    0.0000 C   0  0  0  0  0  0           0  0  0
    1.2970  -11.1830    0.0000 C   0  0  0  0  0  0           0  0  0
    1.5006  -10.3836    0.0000 C   0  0  0  0  0  0           0  0  0
    0.9070   -9.8110    0.0000 C   0  0  0  0  0  0           0  0  0
    1.1107   -9.0115    0.0000 O   0  0  0  0  0  0           0  0  0
    0.1096  -10.0378    0.0000 O   0  0  0  0  0  0           0  0  0
    2.2919  -10.1638    0.0000 O   0  0  0  0  0  0           0  0  0
    2.5135  -11.6736    0.0000 O   0  0  0  0  0  0           0  0  0
  5  4  2  0     0  0
  5 11  1  0     0  0
 11  6  2  0     0  0
  6  7  1  0     0  0
 10 12  2  0     0  0
 12  4  1  0     0  0
  4  2  1  0     0  0
  7 13  1  0     0  0
  2  3  1  0     0  0
  9 14  1  0     0  0
  3  1  1  0     0  0
 14 15  1  0     0  0
  1  5  1  0     0  0
 15 16  2  0     0  0
 16 17  1  0     0  0
  7  8  1  0     0  0
 17 18  1  0     0  0
  8  9  2  0     0  0
 17 19  2  0     0  0
  9 10  1  0     0  0
 16 20  1  0     0  0
 10  6  1  0     0  0
 14 21  2  0     0  0
M  END
>  <prID>
755

>  <IDDB>
219904

>  <pIC50_HIV_Integrase>
5.522878745

>  <Q>
-1.034747312

>  <Activity_Integrase>
Inactive_Integrase

NA
NA
NA
NA
$$$$

  Accelrys05311914302D 1   1.00000     0.00000     0

 19 20  0     0  0            999 V2000
    3.4551   -2.7651    0.0000 C   0  0  0  0  0  0           0  0  0
    4.1676   -2.3526    0.0000 C   0  0  0  0  0  0           0  0  0
    4.8801   -2.7651    0.0000 C   0  0  0  0  0  0           0  0  0
    5.5926   -2.3526    0.0000 C   0  0  0  0  0  0           0  0  0
    6.3051   -2.7651    0.0000 C   0  0  0  0  0  0           0  0  0
    7.0176   -2.3526    0.0000 O   0  0  0  0  0  0           0  0  0
    2.1930   -3.2038    0.0000 C   0  0  0  0  0  0           0  0  0
    2.6912   -3.8614    0.0000 N   0  0  3  0  0  0           0  0  0
    3.4713   -3.5925    0.0000 C   0  0  0  0  0  0           0  0  0
    2.6655   -2.5290    0.0000 C   0  0  0  0  0  0           0  0  0
    1.5458   -1.6836    0.0000 C   0  0  0  0  0  0           0  0  0
    1.0473   -2.3439    0.0000 C   0  0  0  0  0  0           0  0  0
    1.3702   -3.1037    0.0000 C   0  0  0  0  0  0           0  0  0
    2.3627   -1.7818    0.0000 C   0  0  0  0  0  0           0  0  0
    4.1625   -1.5250    0.0000 O   0  0  0  0  0  0           0  0  0
    5.5875   -1.5250    0.0000 O   0  0  0  0  0  0           0  0  0
    6.3000   -3.5875    0.0000 O   0  0  0  0  0  0           0  0  0
    2.4708   -4.6542    0.0000 C   0  0  0  0  0  0           0  0  0
    1.6708   -4.8667    0.0000 C   0  0  0  0  0  0           0  0  0
  1 10  1  0     0  0
 10  7  1  0     0  0
  2  3  1  0     0  0
  5  6  1  0     0  0
 11 12  2  0     0  0
  7  8  1  0     0  0
 12 13  1  0     0  0
 13  7  2  0     0  0
  1  2  1  0     0  0
 10 14  2  0     0  0
 14 11  1  0     0  0
  3  4  2  0     0  0
  2 15  2  0     0  0
  4 16  1  0     0  0
  4  5  1  0     0  0
  5 17  2  0     0  0
  8  9  1  0     0  0
  8 18  1  0     0  0
  9  1  2  0     0  0
 18 19  1  0     0  0
M  END
>  <prID>
756

>  <IDDB>
219905

>  <pIC50_HIV_Integrase>
5.522878745

>  <Q>
-0.729308624

>  <Activity_Integrase>
Inactive_Integrase

NA
NA
NA
NA
$$$$

  Accelrys05311914302D 1   1.00000     0.00000     0

 22 24  0     0  0            999 V2000
    9.2592  -12.9371    0.0000 O   0  0  0  0  0  0           0  0  0
    9.3228  -11.6851    0.0000 O   0  0  0  0  0  0           0  0  0
    8.8007  -12.2527    0.0000 C   0  0  0  0  0  0           0  0  0
   10.0482  -11.8855    0.0000 C   0  0  0  0  0  0           0  0  0
   10.0774  -12.7314    0.0000 C   0  0  0  0  0  0           0  0  0
   11.4458  -12.7154    0.0000 C   0  0  0  0  0  0           0  0  0
   12.2293  -12.9737    0.0000 N   0  0  3  0  0  0           0  0  0
   12.7187  -12.3094    0.0000 C   0  0  0  0  0  0           0  0  0
   12.2354  -11.6376    0.0000 C   0  0  0  0  0  0           0  0  0
   11.4514  -11.8917    0.0000 C   0  0  0  0  0  0           0  0  0
   10.7262  -13.1255    0.0000 C   0  0  0  0  0  0           0  0  0
   10.7341  -11.4725    0.0000 C   0  0  0  0  0  0           0  0  0
   12.4426  -13.8108    0.0000 C   0  0  0  0  0  0           0  0  0
   12.4525  -10.8372    0.0000 C   0  0  0  0  0  0           0  0  0
   12.0261  -10.1289    0.0000 C   0  0  0  0  0  0           0  0  0
   12.2298   -9.3294    0.0000 C   0  0  0  0  0  0           0  0  0
   11.6361   -8.7568    0.0000 C   0  0  0  0  0  0           0  0  0
   11.8398   -7.9573    0.0000 O   0  0  0  0  0  0           0  0  0
   10.8388   -8.9836    0.0000 O   0  0  0  0  0  0           0  0  0
   13.0211   -9.1096    0.0000 O   0  0  0  0  0  0           0  0  0
   13.2427  -10.6194    0.0000 O   0  0  0  0  0  0           0  0  0
   13.2375  -14.0208    0.0000 C   0  0  0  0  0  0           0  0  0
  5 11  1  0     0  0
 11  6  2  0     0  0
  6  7  1  0     0  0
 10 12  2  0     0  0
 12  4  1  0     0  0
  4  2  1  0     0  0
  7 13  1  0     0  0
  2  3  1  0     0  0
  9 14  1  0     0  0
  3  1  1  0     0  0
 14 15  1  0     0  0
  1  5  1  0     0  0
 15 16  2  0     0  0
 16 17  1  0     0  0
  7  8  1  0     0  0
 17 18  1  0     0  0
  8  9  2  0     0  0
 17 19  2  0     0  0
  9 10  1  0     0  0
 16 20  1  0     0  0
 10  6  1  0     0  0
 14 21  2  0     0  0
  5  4  2  0     0  0
 13 22  1  0     0  0
M  END
>  <prID>
757

>  <IDDB>
219906

>  <pIC50_HIV_Integrase>
5.522878745

>  <Q>
-1.617524752

>  <Activity_Integrase>
Inactive_Integrase

NA
NA
NA
NA
$$$$

  Accelrys05311914302D 1   1.00000     0.00000     0

 24 26  0     0  0            999 V2000
    0.5702   -4.3929    0.0000 C   0  0  0  0  0  0           0  0  0
    1.2827   -4.8054    0.0000 C   0  0  0  0  0  0           0  0  0
    1.9952   -4.3929    0.0000 C   0  0  0  0  0  0           0  0  0
    2.7077   -4.8054    0.0000 C   0  0  0  0  0  0           0  0  0
    3.4202   -4.3929    0.0000 C   0  0  0  0  0  0           0  0  0
    4.1327   -4.8054    0.0000 O   0  0  0  0  0  0           0  0  0
    1.2387   -0.9851    0.0000 C   0  0  0  0  0  0           0  0  0
    1.2375   -1.8125    0.0000 C   0  0  0  0  0  0           0  0  0
    1.9523   -2.2254    0.0000 C   0  0  0  0  0  0           0  0  0
    2.6688   -1.8120    0.0000 C   0  0  0  0  0  0           0  0  0
    2.6659   -0.9815    0.0000 C   0  0  0  0  0  0           0  0  0
    1.9505   -0.5724    0.0000 C   0  0  0  0  0  0           0  0  0
   -0.2213   -4.1602    0.0000 C   0  0  0  0  0  0           0  0  0
    1.0377   -3.7131    0.0000 C   0  0  0  0  0  0           0  0  0
    0.5330   -3.0573    0.0000 N   0  0  3  0  0  0           0  0  0
   -0.2424   -3.3367    0.0000 C   0  0  0  0  0  0           0  0  0
   -1.6514   -3.3333    0.0000 C   0  0  0  0  0  0           0  0  0
   -1.6526   -4.1607    0.0000 C   0  0  0  0  0  0           0  0  0
   -0.9378   -4.5735    0.0000 C   0  0  0  0  0  0           0  0  0
   -0.9396   -2.9205    0.0000 C   0  0  0  0  0  0           0  0  0
    0.5250   -2.2292    0.0000 C   0  0  0  0  0  0           0  0  0
    1.2750   -5.6292    0.0000 O   0  0  0  0  0  0           0  0  0
    2.7000   -5.6292    0.0000 O   0  0  0  0  0  0           0  0  0
    3.4125   -3.5667    0.0000 O   0  0  0  0  0  0           0  0  0
 13  1  1  0     0  0
  1  2  1  0     0  0
  3  4  2  0     0  0
  7  8  2  0     0  0
  1 14  2  0     0  0
 14 15  1  0     0  0
 15 16  1  0     0  0
 16 13  1  0     0  0
  8  9  1  0     0  0
  4  5  1  0     0  0
 17 18  2  0     0  0
  9 10  2  0     0  0
 18 19  1  0     0  0
 19 13  2  0     0  0
  2  3  1  0     0  0
 16 20  2  0     0  0
 20 17  1  0     0  0
 10 11  1  0     0  0
 15 21  1  0     0  0
 21  8  1  0     0  0
  5  6  1  0     0  0
  2 22  2  0     0  0
 11 12  2  0     0  0
  4 23  1  0     0  0
 12  7  1  0     0  0
  5 24  2  0     0  0
M  END
>  <prID>
758

>  <IDDB>
219907

>  <pIC50_HIV_Integrase>
6.7614393725

>  <Q>
0.222386016

>  <Activity_Integrase>
Active_Integrase

NA
NA
NA
NA
$$$$

  Accelrys05311914302D 1   1.00000     0.00000     0

 19 20  0     0  0            999 V2000
   -3.2542   -3.3621    0.0000 C   0  0  0  0  0  0           0  0  0
   -3.2231   -2.5376    0.0000 C   0  0  0  0  0  0           0  0  0
   -1.8206   -3.3592    0.0000 C   0  0  0  0  0  0           0  0  0
   -1.0355   -3.6128    0.0000 N   0  0  3  0  0  0           0  0  0
   -0.5501   -2.9456    0.0000 C   0  0  0  0  0  0           0  0  0
   -1.0374   -2.2767    0.0000 C   0  0  0  0  0  0           0  0  0
   -1.8198   -2.5354    0.0000 C   0  0  0  0  0  0           0  0  0
   -2.5378   -3.7735    0.0000 C   0  0  0  0  0  0           0  0  0
   -2.5396   -2.1205    0.0000 C   0  0  0  0  0  0           0  0  0
   -0.8250   -4.4083    0.0000 C   0  0  0  0  0  0           0  0  0
    0.2708   -2.9417    0.0000 C   0  0  0  0  0  0           0  0  0
    0.6792   -2.2250    0.0000 C   0  0  0  0  0  0           0  0  0
    1.5042   -2.2250    0.0000 C   0  0  0  0  0  0           0  0  0
    1.9125   -1.5083    0.0000 C   0  0  0  0  0  0           0  0  0
    2.7375   -1.5083    0.0000 O   0  0  0  0  0  0           0  0  0
    1.4958   -0.7917    0.0000 O   0  0  0  0  0  0           0  0  0
    3.1458   -0.7917    0.0000 C   0  0  0  0  0  0           0  0  0
    0.6792   -3.6542    0.0000 O   0  0  0  0  0  0           0  0  0
    1.9625   -2.9667    0.0000 O   0  0  0  0  0  0           0  0  0
  9  2  1  0     0  0
  1  2  2  0     0  0
  4 10  1  0     0  0
  4  5  1  0     0  0
  5 11  1  0     0  0
  5  6  2  0     0  0
 11 12  1  0     0  0
  6  7  1  0     0  0
 12 13  1  0     0  0
  7  3  1  0     0  0
 13 14  1  0     0  0
  3  4  1  0     0  0
 14 15  1  0     0  0
  1  8  1  0     0  0
 14 16  2  0     0  0
  8  3  2  0     0  0
 15 17  1  0     0  0
 11 18  2  0     0  0
  7  9  2  0     0  0
 13 19  2  0     0  0
M  END
>  <prID>
759

>  <IDDB>
219908

>  <pIC50_HIV_Integrase>
4.346787486

>  <Q>
0.356604846

>  <Activity_Integrase>
Inactive_Integrase

NA
NA
NA
NA
$$$$

  Accelrys05311914302D 1   1.00000     0.00000     0

 22 24  0     0  0            999 V2000
   -1.3939   -3.1116    0.0000 O   0  0  0  0  0  0           0  0  0
   -0.6074   -2.8628    0.0000 C   0  0  0  0  0  0           0  0  0
   -0.5990   -2.0377    0.0000 C   0  0  0  0  0  0           0  0  0
   -1.3840   -1.7755    0.0000 O   0  0  0  0  0  0           0  0  0
   -1.8712   -2.4402    0.0000 C   0  0  0  0  0  0           0  0  0
    0.8294   -2.8592    0.0000 C   0  0  0  0  0  0           0  0  0
    1.6145   -3.1128    0.0000 N   0  0  3  0  0  0           0  0  0
    2.0999   -2.4456    0.0000 C   0  0  0  0  0  0           0  0  0
    1.6126   -1.7767    0.0000 C   0  0  0  0  0  0           0  0  0
    0.8302   -2.0354    0.0000 C   0  0  0  0  0  0           0  0  0
    0.1122   -3.2735    0.0000 C   0  0  0  0  0  0           0  0  0
    0.1104   -1.6205    0.0000 C   0  0  0  0  0  0           0  0  0
    1.8250   -3.9083    0.0000 C   0  0  0  0  0  0           0  0  0
    2.9208   -2.4417    0.0000 C   0  0  0  0  0  0           0  0  0
    3.3292   -1.7250    0.0000 C   0  0  0  0  0  0           0  0  0
    4.1542   -1.7250    0.0000 C   0  0  0  0  0  0           0  0  0
    4.5625   -1.0083    0.0000 C   0  0  0  0  0  0           0  0  0
    5.3875   -1.0083    0.0000 O   0  0  0  0  0  0           0  0  0
    4.1458   -0.2917    0.0000 O   0  0  0  0  0  0           0  0  0
    5.7958   -0.2917    0.0000 C   0  0  0  0  0  0           0  0  0
    3.3292   -3.1542    0.0000 O   0  0  0  0  0  0           0  0  0
    4.6125   -2.4667    0.0000 O   0  0  0  0  0  0           0  0  0
  2 11  1  0     0  0
 11  6  2  0     0  0
  6  7  1  0     0  0
 10 12  2  0     0  0
 12  3  1  0     0  0
  1  2  1  0     0  0
  7 13  1  0     0  0
  8 14  1  0     0  0
  2  3  2  0     0  0
 14 15  1  0     0  0
  3  4  1  0     0  0
 15 16  1  0     0  0
  4  5  1  0     0  0
 16 17  1  0     0  0
  7  8  1  0     0  0
 17 18  1  0     0  0
  8  9  2  0     0  0
 17 19  2  0     0  0
  9 10  1  0     0  0
 18 20  1  0     0  0
 10  6  1  0     0  0
 14 21  2  0     0  0
  5  1  1  0     0  0
 16 22  2  0     0  0
M  END
>  <prID>
760

>  <IDDB>
219909

>  <pIC50_HIV_Integrase>
4.301029996

>  <Q>
-0.531500116

>  <Activity_Integrase>
Inactive_Integrase

NA
NA
NA
NA
$$$$

  Accelrys05311914302D 1   1.00000     0.00000     0

 23 25  0     0  0            999 V2000
   -1.4265   -3.0891    0.0000 O   0  0  0  0  0  0           0  0  0
   -0.6022   -2.0376    0.0000 C   0  0  0  0  0  0           0  0  0
   -1.3796   -1.7538    0.0000 O   0  0  0  0  0  0           0  0  0
   -1.8850   -2.4047    0.0000 C   0  0  0  0  0  0           0  0  0
   -0.6375   -2.8583    0.0000 C   0  0  0  0  0  0           0  0  0
    0.8294   -2.8592    0.0000 C   0  0  0  0  0  0           0  0  0
    1.6145   -3.1128    0.0000 N   0  0  3  0  0  0           0  0  0
    2.0999   -2.4456    0.0000 C   0  0  0  0  0  0           0  0  0
    1.6126   -1.7767    0.0000 C   0  0  0  0  0  0           0  0  0
    0.8302   -2.0354    0.0000 C   0  0  0  0  0  0           0  0  0
    0.1122   -3.2735    0.0000 C   0  0  0  0  0  0           0  0  0
    0.1104   -1.6205    0.0000 C   0  0  0  0  0  0           0  0  0
    1.8250   -3.9083    0.0000 C   0  0  0  0  0  0           0  0  0
    2.9208   -2.4417    0.0000 C   0  0  0  0  0  0           0  0  0
    3.3292   -1.7250    0.0000 C   0  0  0  0  0  0           0  0  0
    4.1542   -1.7250    0.0000 C   0  0  0  0  0  0           0  0  0
    4.5625   -1.0083    0.0000 C   0  0  0  0  0  0           0  0  0
    5.3875   -1.0083    0.0000 O   0  0  0  0  0  0           0  0  0
    4.1458   -0.2917    0.0000 O   0  0  0  0  0  0           0  0  0
    5.7958   -0.2917    0.0000 C   0  0  0  0  0  0           0  0  0
    3.3292   -3.1542    0.0000 O   0  0  0  0  0  0           0  0  0
    4.6125   -2.4667    0.0000 O   0  0  0  0  0  0           0  0  0
    2.6208   -4.1208    0.0000 C   0  0  0  0  0  0           0  0  0
 11  6  2  0     0  0
  6  7  1  0     0  0
 10 12  2  0     0  0
 12  2  1  0     0  0
  1  5  1  0     0  0
  7 13  1  0     0  0
  5  2  2  0     0  0
  8 14  1  0     0  0
  2  3  1  0     0  0
 14 15  1  0     0  0
  3  4  1  0     0  0
 15 16  1  0     0  0
  4  1  1  0     0  0
 16 17  1  0     0  0
  7  8  1  0     0  0
 17 18  1  0     0  0
  8  9  2  0     0  0
 17 19  2  0     0  0
  9 10  1  0     0  0
 18 20  1  0     0  0
 10  6  1  0     0  0
 14 21  2  0     0  0
 16 22  2  0     0  0
  5 11  1  0     0  0
 13 23  1  0     0  0
M  END
>  <prID>
761

>  <IDDB>
219911

>  <pIC50_HIV_Integrase>
4.187086643

>  <Q>
-1.107920988

>  <Activity_Integrase>
Inactive_Integrase

NA
NA
NA
NA
$$$$

  Accelrys05311914302D 1   1.00000     0.00000     0

 28 31  0     0  0            999 V2000
    2.4277   -4.4666    0.0000 C   0  0  0  0  0  0           0  0  0
    2.4266   -5.2940    0.0000 C   0  0  0  0  0  0           0  0  0
    3.1414   -5.7069    0.0000 C   0  0  0  0  0  0           0  0  0
    3.8578   -5.2935    0.0000 C   0  0  0  0  0  0           0  0  0
    3.8550   -4.4630    0.0000 C   0  0  0  0  0  0           0  0  0
    3.1396   -4.0539    0.0000 C   0  0  0  0  0  0           0  0  0
    1.6167   -3.9958    0.0000 C   0  0  0  0  0  0           0  0  0
   -1.4265   -3.0891    0.0000 O   0  0  0  0  0  0           0  0  0
   -0.6022   -2.0376    0.0000 C   0  0  0  0  0  0           0  0  0
   -1.3796   -1.7538    0.0000 O   0  0  0  0  0  0           0  0  0
   -1.8850   -2.4047    0.0000 C   0  0  0  0  0  0           0  0  0
   -0.6375   -2.8583    0.0000 C   0  0  0  0  0  0           0  0  0
    0.8294   -2.8592    0.0000 C   0  0  0  0  0  0           0  0  0
    1.6145   -3.1128    0.0000 N   0  0  3  0  0  0           0  0  0
    2.0999   -2.4456    0.0000 C   0  0  0  0  0  0           0  0  0
    1.6126   -1.7767    0.0000 C   0  0  0  0  0  0           0  0  0
    0.8302   -2.0354    0.0000 C   0  0  0  0  0  0           0  0  0
    0.1122   -3.2735    0.0000 C   0  0  0  0  0  0           0  0  0
    0.1104   -1.6205    0.0000 C   0  0  0  0  0  0           0  0  0
    2.9208   -2.4417    0.0000 C   0  0  0  0  0  0           0  0  0
    3.3292   -1.7250    0.0000 C   0  0  0  0  0  0           0  0  0
    4.1542   -1.7250    0.0000 C   0  0  0  0  0  0           0  0  0
    4.5625   -1.0083    0.0000 C   0  0  0  0  0  0           0  0  0
    5.3875   -1.0083    0.0000 O   0  0  0  0  0  0           0  0  0
    4.1458   -0.2917    0.0000 O   0  0  0  0  0  0           0  0  0
    5.7958   -0.2917    0.0000 C   0  0  0  0  0  0           0  0  0
    3.3292   -3.1542    0.0000 O   0  0  0  0  0  0           0  0  0
    4.6125   -2.4667    0.0000 O   0  0  0  0  0  0           0  0  0
  7  1  1  0     0  0
  8 12  1  0     0  0
  3  4  2  0     0  0
 14 15  1  0     0  0
 15 16  2  0     0  0
 16 17  1  0     0  0
 17 13  1  0     0  0
 12 18  1  0     0  0
 18 13  2  0     0  0
  4  5  1  0     0  0
 17 19  2  0     0  0
 19  9  1  0     0  0
 14  7  1  0     0  0
  2  3  1  0     0  0
 15 20  1  0     0  0
 12  9  2  0     0  0
 20 21  1  0     0  0
  9 10  1  0     0  0
 21 22  1  0     0  0
 10 11  1  0     0  0
 22 23  1  0     0  0
 11  8  1  0     0  0
 23 24  1  0     0  0
  5  6  2  0     0  0
 23 25  2  0     0  0
 13 14  1  0     0  0
 24 26  1  0     0  0
  6  1  1  0     0  0
 20 27  2  0     0  0
  1  2  2  0     0  0
 22 28  2  0     0  0
M  END
>  <prID>
762

>  <IDDB>
219912

>  <pIC50_HIV_Integrase>
4.853871964

>  <Q>
-0.157134912

>  <Activity_Integrase>
Inactive_Integrase

NA
NA
NA
NA
$$$$

  Accelrys05311914302D 1   1.00000     0.00000     0

 22 24  0     0  0            999 V2000
    5.5467  -13.5621    0.0000 O   0  0  0  0  0  0           0  0  0
    5.6103  -12.3101    0.0000 O   0  0  0  0  0  0           0  0  0
    5.0882  -12.8777    0.0000 C   0  0  0  0  0  0           0  0  0
    6.3357  -12.5105    0.0000 C   0  0  0  0  0  0           0  0  0
    6.3649  -13.3564    0.0000 C   0  0  0  0  0  0           0  0  0
    7.7333  -13.3404    0.0000 C   0  0  0  0  0  0           0  0  0
    8.5168  -13.5987    0.0000 N   0  0  3  0  0  0           0  0  0
    9.0062  -12.9344    0.0000 C   0  0  0  0  0  0           0  0  0
    8.5229  -12.2626    0.0000 C   0  0  0  0  0  0           0  0  0
    7.7389  -12.5167    0.0000 C   0  0  0  0  0  0           0  0  0
    7.0137  -13.7505    0.0000 C   0  0  0  0  0  0           0  0  0
    7.0216  -12.0975    0.0000 C   0  0  0  0  0  0           0  0  0
    8.7301  -14.4358    0.0000 C   0  0  0  0  0  0           0  0  0
    8.7400  -11.4622    0.0000 C   0  0  0  0  0  0           0  0  0
    8.3136  -10.7539    0.0000 C   0  0  0  0  0  0           0  0  0
    8.5173   -9.9544    0.0000 C   0  0  0  0  0  0           0  0  0
    7.9236   -9.3818    0.0000 C   0  0  0  0  0  0           0  0  0
    8.1273   -8.5823    0.0000 O   0  0  0  0  0  0           0  0  0
    7.1263   -9.6086    0.0000 O   0  0  0  0  0  0           0  0  0
    9.3086   -9.7346    0.0000 O   0  0  0  0  0  0           0  0  0
    9.5302  -11.2444    0.0000 O   0  0  0  0  0  0           0  0  0
    7.5375   -7.9917    0.0000 C   0  0  0  0  0  0           0  0  0
  5 11  1  0     0  0
 11  6  2  0     0  0
  6  7  1  0     0  0
 10 12  2  0     0  0
 12  4  1  0     0  0
  4  2  1  0     0  0
  7 13  1  0     0  0
  2  3  1  0     0  0
  9 14  1  0     0  0
  3  1  1  0     0  0
 14 15  1  0     0  0
  1  5  1  0     0  0
 15 16  1  0     0  0
 16 17  1  0     0  0
  7  8  1  0     0  0
 17 18  1  0     0  0
  8  9  2  0     0  0
 17 19  2  0     0  0
  9 10  1  0     0  0
 16 20  2  0     0  0
 10  6  1  0     0  0
 14 21  2  0     0  0
  5  4  2  0     0  0
 18 22  1  0     0  0
M  END
>  <prID>
763

>  <IDDB>
219913

>  <pIC50_HIV_Integrase>
4.22184875

>  <Q>
-0.270641298

>  <Activity_Integrase>
Inactive_Integrase

NA
NA
NA
NA
$$$$

  Accelrys05311914302D 1   1.00000     0.00000     0

 20 21  0     0  0            999 V2000
    6.3357  -12.5105    0.0000 C   0  0  0  0  0  0           0  0  0
    6.3649  -13.3564    0.0000 C   0  0  0  0  0  0           0  0  0
    7.7333  -13.3404    0.0000 C   0  0  0  0  0  0           0  0  0
    8.5168  -13.5987    0.0000 N   0  0  3  0  0  0           0  0  0
    9.0062  -12.9344    0.0000 C   0  0  0  0  0  0           0  0  0
    8.5229  -12.2626    0.0000 C   0  0  0  0  0  0           0  0  0
    7.7389  -12.5167    0.0000 C   0  0  0  0  0  0           0  0  0
    7.0137  -13.7505    0.0000 C   0  0  0  0  0  0           0  0  0
    7.0216  -12.0975    0.0000 C   0  0  0  0  0  0           0  0  0
    8.7301  -14.4358    0.0000 C   0  0  0  0  0  0           0  0  0
    8.7400  -11.4622    0.0000 C   0  0  0  0  0  0           0  0  0
    8.3136  -10.7539    0.0000 C   0  0  0  0  0  0           0  0  0
    8.5173   -9.9544    0.0000 C   0  0  0  0  0  0           0  0  0
    7.9236   -9.3818    0.0000 C   0  0  0  0  0  0           0  0  0
    8.1273   -8.5823    0.0000 O   0  0  0  0  0  0           0  0  0
    7.1263   -9.6086    0.0000 O   0  0  0  0  0  0           0  0  0
    9.3086   -9.7346    0.0000 O   0  0  0  0  0  0           0  0  0
    9.5302  -11.2444    0.0000 O   0  0  0  0  0  0           0  0  0
    7.5375   -7.9917    0.0000 C   0  0  0  0  0  0           0  0  0
    9.5250  -14.6458    0.0000 C   0  0  0  0  0  0           0  0  0
  2  1  2  0     0  0
  4 10  1  0     0  0
  4  5  1  0     0  0
  6 11  1  0     0  0
  5  6  2  0     0  0
 11 12  1  0     0  0
  6  7  1  0     0  0
 12 13  1  0     0  0
  7  3  1  0     0  0
 13 14  1  0     0  0
  3  4  1  0     0  0
 14 15  1  0     0  0
  2  8  1  0     0  0
 14 16  2  0     0  0
  8  3  2  0     0  0
 13 17  2  0     0  0
 11 18  2  0     0  0
  7  9  2  0     0  0
 15 19  1  0     0  0
  9  1  1  0     0  0
 10 20  1  0     0  0
M  END
>  <prID>
764

>  <IDDB>
219914

>  <pIC50_HIV_Integrase>
4.585026652

>  <Q>
0.034797022

>  <Activity_Integrase>
Inactive_Integrase

NA
NA
NA
NA
$$$$

  Accelrys05311914302D 1   1.00000     0.00000     0

 41 45  0     0  0            999 V2000
    5.0613   -2.3473    0.0000 C   0  0  0  0  0  0           0  0  0
    5.0602   -3.1746    0.0000 C   0  0  0  0  0  0           0  0  0
    5.7750   -3.5875    0.0000 N   0  0  3  0  0  0           0  0  0
    6.4914   -3.1741    0.0000 C   0  0  0  0  0  0           0  0  0
    6.4886   -2.3436    0.0000 N   0  0  0  0  0  0           0  0  0
    5.7732   -1.9345    0.0000 C   0  0  0  0  0  0           0  0  0
    5.7669   -1.1056    0.0000 N   0  0  0  0  0  0           0  0  0
    7.2003   -3.5848    0.0000 O   0  0  0  0  0  0           0  0  0
    3.7708    0.1875    0.0000 N   0  0  3  0  0  0           0  0  0
    4.5746    0.3734    0.0000 C   0  0  0  0  0  0           0  0  0
    4.6482    1.1952    0.0000 C   0  0  0  0  0  0           0  0  0
    3.8864    1.5186    0.0000 N   0  0  0  0  0  0           0  0  0
    3.3481    0.8946    0.0000 C   0  0  0  0  0  0           0  0  0
    5.2700   -0.0714    0.0000 N   0  0  0  0  0  0           0  0  0
    6.0044    0.3091    0.0000 C   0  0  0  0  0  0           0  0  0
    6.0392    1.1389    0.0000 N   0  0  0  0  0  0           0  0  0
    5.3430    1.5800    0.0000 C   0  0  0  0  0  0           0  0  0
    5.3743    2.4083    0.0000 N   0  0  0  0  0  0           0  0  0
    3.7250   -4.2834    0.0000 C   0  0  1  0  0  0           0  0  0
    4.5500   -4.2834    0.0000 C   0  0  1  0  0  0           0  0  0
    4.8068   -3.4992    0.0000 C   0  0  0  0  0  0           0  0  0
    4.1375   -3.0125    0.0000 O   0  0  0  0  0  0           0  0  0
    3.4724   -3.4992    0.0000 C   0  0  2  0  0  0           0  0  0
    1.9083   -1.3709    0.0000 C   0  0  1  0  0  0           0  0  0
    2.7313   -1.3673    0.0000 C   0  0  0  0  0  0           0  0  0
    2.9901   -0.5867    0.0000 C   0  0  1  0  0  0           0  0  0
    2.3208   -0.1000    0.0000 O   0  0  0  0  0  0           0  0  0
    1.6558   -0.5867    0.0000 C   0  0  2  0  0  0           0  0  0
    1.3167   -1.9542    0.0000 O   0  0  0  0  0  0           0  0  0
    1.0667    0.0042    0.0000 C   0  0  0  0  0  0           0  0  0
    0.2417    0.0083    0.0000 O   0  0  0  0  0  0           0  0  0
   -0.5833    0.0083    0.0000 P   0  0  3  0  0  0           0  0  0
   -0.5875    0.8333    0.0000 O   0  0  0  0  0  0           0  0  0
   -1.4083    0.0083    0.0000 O   0  0  0  0  0  0           0  0  0
   -0.5875   -0.8167    0.0000 O   0  0  0  0  0  0           0  0  0
    1.3125   -2.7792    0.0000 P   0  0  3  0  0  0           0  0  0
    0.4875   -2.7792    0.0000 O   0  0  0  0  0  0           0  0  0
    1.3083   -3.6042    0.0000 O   0  0  0  0  0  0           0  0  0
    2.1375   -2.7792    0.0000 O   0  0  0  0  0  0           0  0  0
    2.9625   -2.7792    0.0000 C   0  0  0  0  0  0           0  0  0
    3.1333   -4.8667    0.0000 O   0  0  0  0  0  0           0  0  0
  2  3  1  0     0  0
  5  6  2  0     0  0
  6  1  1  0     0  0
 20 21  1  0     0  0
 21 22  1  0     0  0
 22 23  1  0     0  0
 23 19  1  0     0  0
 24 25  1  0     0  0
 10 11  2  0     0  0
 11 12  1  0     0  0
 12 13  2  0     0  0
 13  9  1  0     0  0
  1  2  2  0     0  0
 25 26  1  0     0  0
 26 27  1  0     0  0
 27 28  1  0     0  0
 28 24  1  0     0  0
 10 14  1  0     0  0
 24 29  1  6     0  0
  6  7  1  0     0  0
 28 30  1  1     0  0
 14 15  2  0     0  0
 30 31  1  0     0  0
  3  4  1  0     0  0
 31 32  1  0     0  0
 15 16  1  0     0  0
 32 33  2  0     0  0
  4  8  2  0     0  0
 32 34  1  0     0  0
 16 17  2  0     0  0
 32 35  1  0     0  0
 17 11  1  0     0  0
 29 36  1  0     0  0
  9 10  1  0     0  0
 36 37  2  0     0  0
 17 18  1  0     0  0
 36 38  1  0     0  0
 19 20  1  0     0  0
 36 39  1  0     0  0
 39 40  1  0     0  0
 23 40  1  1     0  0
  4  5  1  0     0  0
 19 41  1  6     0  0
 26  9  1  1     0  0
 20  3  1  1     0  0
M  END
>  <prID>
765

>  <IDDB>
219967

>  <pIC50_HIV_Integrase>
4.187086643

>  <Q>
-11.81507548

>  <Activity_Integrase>
Inactive_Integrase

NA
NA
NA
NA
$$$$

  Accelrys05311914302D 1   1.00000     0.00000     0

 43 48  0     0  0            999 V2000
    5.7750   -3.5875    0.0000 N   0  0  3  0  0  0           0  0  0
    6.6496   -3.4016    0.0000 C   0  0  0  0  0  0           0  0  0
    6.6523   -2.5798    0.0000 C   0  0  0  0  0  0           0  0  0
    5.8906   -2.2564    0.0000 N   0  0  0  0  0  0           0  0  0
    5.3523   -2.8804    0.0000 C   0  0  0  0  0  0           0  0  0
    7.2742   -3.8464    0.0000 N   0  0  0  0  0  0           0  0  0
    8.0086   -3.4659    0.0000 C   0  0  0  0  0  0           0  0  0
    8.0433   -2.6361    0.0000 N   0  0  0  0  0  0           0  0  0
    7.3472   -2.1950    0.0000 C   0  0  0  0  0  0           0  0  0
    7.3785   -1.3667    0.0000 N   0  0  0  0  0  0           0  0  0
    3.7708    0.1875    0.0000 N   0  0  3  0  0  0           0  0  0
    4.6496    0.4067    0.0000 C   0  0  0  0  0  0           0  0  0
    4.6482    1.1952    0.0000 C   0  0  0  0  0  0           0  0  0
    3.8864    1.5186    0.0000 N   0  0  0  0  0  0           0  0  0
    3.3481    0.8946    0.0000 C   0  0  0  0  0  0           0  0  0
    5.2700   -0.0714    0.0000 N   0  0  0  0  0  0           0  0  0
    6.0044    0.3091    0.0000 C   0  0  0  0  0  0           0  0  0
    6.0392    1.1389    0.0000 N   0  0  0  0  0  0           0  0  0
    5.3430    1.5800    0.0000 C   0  0  0  0  0  0           0  0  0
    5.3743    2.4083    0.0000 N   0  0  0  0  0  0           0  0  0
    3.7250   -4.2834    0.0000 C   0  0  1  0  0  0           0  0  0
    4.5500   -4.2834    0.0000 C   0  0  1  0  0  0           0  0  0
    4.8068   -3.4992    0.0000 C   0  0  0  0  0  0           0  0  0
    4.1375   -3.0125    0.0000 O   0  0  0  0  0  0           0  0  0
    3.4724   -3.4992    0.0000 C   0  0  2  0  0  0           0  0  0
    1.9083   -1.3709    0.0000 C   0  0  1  0  0  0           0  0  0
    2.7313   -1.3673    0.0000 C   0  0  0  0  0  0           0  0  0
    2.9901   -0.5867    0.0000 C   0  0  1  0  0  0           0  0  0
    2.3208   -0.1000    0.0000 O   0  0  0  0  0  0           0  0  0
    1.6558   -0.5867    0.0000 C   0  0  2  0  0  0           0  0  0
    1.3167   -1.9542    0.0000 O   0  0  0  0  0  0           0  0  0
    1.0667    0.0042    0.0000 C   0  0  0  0  0  0           0  0  0
    0.2417    0.0083    0.0000 O   0  0  0  0  0  0           0  0  0
   -0.5833    0.0083    0.0000 P   0  0  3  0  0  0           0  0  0
   -0.5875    0.8333    0.0000 O   0  0  0  0  0  0           0  0  0
   -1.4083    0.0083    0.0000 O   0  0  0  0  0  0           0  0  0
   -0.5875   -0.8167    0.0000 O   0  0  0  0  0  0           0  0  0
    1.3125   -2.7792    0.0000 P   0  0  3  0  0  0           0  0  0
    0.4875   -2.7792    0.0000 O   0  0  0  0  0  0           0  0  0
    1.3083   -3.6042    0.0000 O   0  0  0  0  0  0           0  0  0
    2.1375   -2.7792    0.0000 O   0  0  0  0  0  0           0  0  0
    2.9625   -2.7792    0.0000 C   0  0  0  0  0  0           0  0  0
    3.1333   -4.8667    0.0000 O   0  0  0  0  0  0           0  0  0
 21 22  1  0     0  0
  4  5  2  0     0  0
  9 10  1  0     0  0
 11 12  1  0     0  0
  5  1  1  0     0  0
  1  2  1  0     0  0
 22 23  1  0     0  0
 23 24  1  0     0  0
 24 25  1  0     0  0
 25 21  1  0     0  0
 26 27  1  0     0  0
  2  6  1  0     0  0
  6  7  2  0     0  0
 12 13  2  0     0  0
 13 14  1  0     0  0
 27 28  1  0     0  0
 28 29  1  0     0  0
 29 30  1  0     0  0
 30 26  1  0     0  0
 14 15  2  0     0  0
 26 31  1  6     0  0
 15 11  1  0     0  0
 30 32  1  1     0  0
  2  3  2  0     0  0
 32 33  1  0     0  0
 12 16  1  0     0  0
 33 34  1  0     0  0
  7  8  1  0     0  0
 34 35  2  0     0  0
 16 17  2  0     0  0
 34 36  1  0     0  0
  3  4  1  0     0  0
 34 37  1  0     0  0
 17 18  1  0     0  0
 31 38  1  0     0  0
  8  9  2  0     0  0
 38 39  2  0     0  0
 18 19  2  0     0  0
 38 40  1  0     0  0
 19 13  1  0     0  0
 38 41  1  0     0  0
  9  3  1  0     0  0
 41 42  1  0     0  0
 25 42  1  1     0  0
 19 20  1  0     0  0
 21 43  1  6     0  0
 28 11  1  1     0  0
 22  1  1  1     0  0
M  END
>  <prID>
766

>  <IDDB>
219968

>  <pIC50_HIV_Integrase>
4.387216143

>  <Q>
-11.6117568

>  <Activity_Integrase>
Inactive_Integrase

NA
NA
NA
NA
$$$$

  Accelrys05311914302D 1   1.00000     0.00000     0

 42 47  0     0  0            999 V2000
    5.7750   -3.5875    0.0000 N   0  0  3  0  0  0           0  0  0
    6.6496   -3.4016    0.0000 C   0  0  0  0  0  0           0  0  0
    6.6523   -2.5798    0.0000 C   0  0  0  0  0  0           0  0  0
    5.8906   -2.2564    0.0000 N   0  0  0  0  0  0           0  0  0
    5.3523   -2.8804    0.0000 C   0  0  0  0  0  0           0  0  0
    7.2742   -3.8464    0.0000 N   0  0  0  0  0  0           0  0  0
    8.0086   -3.4659    0.0000 C   0  0  0  0  0  0           0  0  0
    8.0433   -2.6361    0.0000 N   0  0  0  0  0  0           0  0  0
    7.3472   -2.1950    0.0000 C   0  0  0  0  0  0           0  0  0
    7.3785   -1.3667    0.0000 N   0  0  0  0  0  0           0  0  0
    3.7708    0.1875    0.0000 N   0  0  3  0  0  0           0  0  0
    4.6496    0.4067    0.0000 C   0  0  0  0  0  0           0  0  0
    4.6482    1.1952    0.0000 C   0  0  0  0  0  0           0  0  0
    3.8864    1.5186    0.0000 N   0  0  0  0  0  0           0  0  0
    3.3481    0.8946    0.0000 C   0  0  0  0  0  0           0  0  0
    5.2700   -0.0714    0.0000 N   0  0  0  0  0  0           0  0  0
    6.0044    0.3091    0.0000 C   0  0  0  0  0  0           0  0  0
    6.0392    1.1389    0.0000 N   0  0  0  0  0  0           0  0  0
    5.3430    1.5800    0.0000 C   0  0  0  0  0  0           0  0  0
    5.3743    2.4083    0.0000 N   0  0  0  0  0  0           0  0  0
    3.7250   -4.2834    0.0000 C   0  0  0  0  0  0           0  0  0
    4.5500   -4.2834    0.0000 C   0  0  1  0  0  0           0  0  0
    4.8068   -3.4992    0.0000 C   0  0  0  0  0  0           0  0  0
    4.1375   -3.0125    0.0000 O   0  0  0  0  0  0           0  0  0
    3.4724   -3.4992    0.0000 C   0  0  2  0  0  0           0  0  0
    1.9083   -1.3709    0.0000 C   0  0  1  0  0  0           0  0  0
    2.7313   -1.3673    0.0000 C   0  0  0  0  0  0           0  0  0
    2.9901   -0.5867    0.0000 C   0  0  1  0  0  0           0  0  0
    2.3208   -0.1000    0.0000 O   0  0  0  0  0  0           0  0  0
    1.6558   -0.5867    0.0000 C   0  0  2  0  0  0           0  0  0
    1.3167   -1.9542    0.0000 O   0  0  0  0  0  0           0  0  0
    1.0667    0.0042    0.0000 C   0  0  0  0  0  0           0  0  0
    0.2417    0.0083    0.0000 O   0  0  0  0  0  0           0  0  0
   -0.5833    0.0083    0.0000 P   0  0  3  0  0  0           0  0  0
   -0.5875    0.8333    0.0000 O   0  0  0  0  0  0           0  0  0
   -1.4083    0.0083    0.0000 O   0  0  0  0  0  0           0  0  0
   -0.5875   -0.8167    0.0000 O   0  0  0  0  0  0           0  0  0
    1.3125   -2.7792    0.0000 P   0  0  3  0  0  0           0  0  0
    0.4875   -2.7792    0.0000 O   0  0  0  0  0  0           0  0  0
    1.3083   -3.6042    0.0000 O   0  0  0  0  0  0           0  0  0
    2.1375   -2.7792    0.0000 O   0  0  0  0  0  0           0  0  0
    2.9625   -2.7792    0.0000 C   0  0  0  0  0  0           0  0  0
 19 20  1  0     0  0
 21 22  1  0     0  0
  4  5  2  0     0  0
  9 10  1  0     0  0
 11 12  1  0     0  0
  5  1  1  0     0  0
  1  2  1  0     0  0
 22 23  1  0     0  0
 23 24  1  0     0  0
 24 25  1  0     0  0
 25 21  1  0     0  0
 26 27  1  0     0  0
  2  6  1  0     0  0
  6  7  2  0     0  0
 12 13  2  0     0  0
 13 14  1  0     0  0
 27 28  1  0     0  0
 28 29  1  0     0  0
 29 30  1  0     0  0
 30 26  1  0     0  0
 14 15  2  0     0  0
 26 31  1  6     0  0
 15 11  1  0     0  0
 30 32  1  1     0  0
  2  3  2  0     0  0
 32 33  1  0     0  0
 12 16  1  0     0  0
 33 34  1  0     0  0
  7  8  1  0     0  0
 34 35  2  0     0  0
 16 17  2  0     0  0
 34 36  1  0     0  0
  3  4  1  0     0  0
 34 37  1  0     0  0
 17 18  1  0     0  0
 31 38  1  0     0  0
  8  9  2  0     0  0
 38 39  2  0     0  0
 18 19  2  0     0  0
 38 40  1  0     0  0
 19 13  1  0     0  0
 38 41  1  0     0  0
  9  3  1  0     0  0
 41 42  1  0     0  0
 25 42  1  1     0  0
 28 11  1  1     0  0
 22  1  1  1     0  0
M  END
>  <prID>
767

>  <IDDB>
219969

>  <pIC50_HIV_Integrase>
3.943095149

>  <Q>
-10.94921594

>  <Activity_Integrase>
Inactive_Integrase

NA
NA
NA
NA
$$$$

  Accelrys05311914302D 1   1.00000     0.00000     0

 59 65  0     0  0            999 V2000
   11.0476   -4.9992    0.0000 C   0  0  0  0  0  0           0  0  0
   11.6059   -4.5414    0.0000 C   0  0  0  0  0  0           0  0  0
    2.9625   -4.5209    0.0000 C   0  0  2  0  0  0           0  0  0
    1.5292   -4.5209    0.0000 C   0  0  0  0  0  0           0  0  0
    4.3875   -4.5167    0.0000 C   0  0  0  0  0  0           0  0  0
    2.2417   -4.9416    0.0000 C   0  0  0  0  0  0           0  0  0
    3.6751   -4.9333    0.0000 C   0  0  0  0  0  0           0  0  0
    2.9542   -3.6916    0.0000 C   0  0  2  0  0  0           0  0  0
    4.3875   -3.6916    0.0000 C   0  0  0  0  0  0           0  0  0
    0.8167   -4.9333    0.0000 C   0  0  0  0  0  0           0  0  0
    1.5292   -3.6916    0.0000 C   0  0  1  0  0  0           0  0  0
    0.1000   -4.5167    0.0000 C   0  0  0  0  0  0           0  0  0
    0.8167   -3.2833    0.0000 C   0  0  2  0  0  0           0  0  0
    0.1083   -3.6916    0.0000 C   0  0  0  0  0  0           0  0  0
    3.6626   -3.2791    0.0000 C   0  0  1  0  0  0           0  0  0
    5.1083   -4.9208    0.0000 C   0  0  0  0  0  0           0  0  0
    2.2417   -3.2833    0.0000 C   0  0  2  0  0  0           0  0  0
    8.6626   -3.6541    0.0000 N   0  0  3  0  0  0           0  0  0
    5.8167   -4.5042    0.0000 N   0  0  0  0  0  0           0  0  0
    7.2500   -4.4959    0.0000 N   0  0  3  0  0  0           0  0  0
    6.5417   -4.9166    0.0000 C   0  0  0  0  0  0           0  0  0
    3.6751   -5.7625    0.0000 O   0  0  0  0  0  0           0  0  0
    0.8167   -5.7625    0.0000 O   0  0  0  0  0  0           0  0  0
    3.6626   -2.4541    0.0000 N   0  0  3  0  0  0           0  0  0
   -0.6125   -4.9333    0.0000 C   0  0  0  0  0  0           0  0  0
    2.9542   -5.3458    0.0000 O   0  0  0  0  0  0           0  0  0
    7.9500   -3.2541    0.0000 C   0  0  0  0  0  0           0  0  0
    8.6709   -4.4834    0.0000 C   0  0  0  0  0  0           0  0  0
    5.1125   -5.7458    0.0000 O   0  0  0  0  0  0           0  0  0
    2.2417   -5.7666    0.0000 O   0  0  0  0  0  0           0  0  0
    5.0958   -3.2708    0.0000 O   0  0  0  0  0  0           0  0  0
    0.0709   -2.7624    0.0000 C   0  0  0  0  0  0           0  0  0
    7.9625   -4.9041    0.0000 C   0  0  0  0  0  0           0  0  0
    7.2417   -3.6666    0.0000 C   0  0  0  0  0  0           0  0  0
   -0.6125   -3.2833    0.0000 C   0  0  0  0  0  0           0  0  0
    0.7875   -2.4208    0.0000 O   0  0  0  0  0  0           0  0  0
   -0.6125   -5.7666    0.0000 O   0  0  0  0  0  0           0  0  0
   -1.3166   -3.6916    0.0000 C   0  0  0  0  0  0           0  0  0
   -1.3166   -4.5167    0.0000 C   0  0  0  0  0  0           0  0  0
    4.3750   -2.0417    0.0000 C   0  0  0  0  0  0           0  0  0
    2.9500   -2.0459    0.0000 C   0  0  0  0  0  0           0  0  0
   12.3304   -2.4819    0.0000 C   0  0  0  0  0  0           0  0  0
   10.9037   -2.4730    0.0000 C   0  0  0  0  0  0           0  0  0
   11.6203   -2.0742    0.0000 C   0  0  0  0  0  0           0  0  0
   10.9028   -3.2994    0.0000 C   0  0  0  0  0  0           0  0  0
   12.3297   -3.3082    0.0000 C   0  0  0  0  0  0           0  0  0
   11.6066   -3.7149    0.0000 N   0  0  3  0  0  0           0  0  0
   10.1839   -3.7061    0.0000 C   0  0  0  0  0  0           0  0  0
    9.4729   -3.2864    0.0000 C   0  0  0  0  0  0           0  0  0
   10.1926   -2.0576    0.0000 C   0  0  0  0  0  0           0  0  0
   13.0478   -2.0737    0.0000 C   0  0  0  0  0  0           0  0  0
    9.4809   -2.4642    0.0000 C   0  0  0  0  0  0           0  0  0
   11.6233   -1.2442    0.0000 O   0  0  0  0  0  0           0  0  0
   13.0542   -1.2458    0.0000 O   0  0  0  0  0  0           0  0  0
    8.7657   -2.0559    0.0000 F   0  0  0  0  0  0           0  0  0
   13.7630   -2.4820    0.0000 O   0  0  0  0  0  0           0  0  0
    2.9500   -2.8625    0.0000 H   0  0  0  0  0  0           0  0  0
    1.5083   -2.8250    0.0000 H   0  0  0  0  0  0           0  0  0
    2.2375   -2.4542    0.0000 O   0  0  0  0  0  0           0  0  0
  1  2  1  0     0  0
 21 19  1  0     0  0
 22  7  2  0     0  0
 23 10  2  0     0  0
 15 24  1  6     0  0
 25 12  2  0     0  0
  3 26  1  6     0  0
 27 34  1  0     0  0
 28 33  1  0     0  0
 29 16  2  0     0  0
 30  6  1  0     0  0
 31  9  1  0     0  0
 13 32  1  6     0  0
 33 20  1  0     0  0
 34 20  1  0     0  0
 35 14  2  0     0  0
 13 36  1  1     0  0
 37 25  1  0     0  0
 38 35  1  0     0  0
 39 25  1  0     0  0
 40 24  1  0     0  0
 41 24  1  0     0  0
 11  4  1  0     0  0
  9  5  2  0     0  0
 14 12  1  0     0  0
 38 39  2  0     0  0
 18 28  1  0     0  0
  4  6  2  0     0  0
  5  7  1  0     0  0
  6  3  1  0     0  0
  7  3  1  0     0  0
  8  3  1  0     0  0
  9 15  1  0     0  0
 10  4  1  0     0  0
 11 17  1  0     0  0
 12 10  1  0     0  0
 13 11  1  0     0  0
 14 13  1  0     0  0
 15  8  1  0     0  0
 16  5  1  0     0  0
 17  8  1  0     0  0
 18 27  1  0     0  0
 19 16  1  0     0  0
 42 44  1  0     0  0
 43 50  1  0     0  0
 44 43  1  0     0  0
 45 48  1  0     0  0
 46 47  1  0     0  0
 47 45  1  0     0  0
 48 49  2  0     0  0
 50 52  2  0     0  0
 51 42  1  0     0  0
 52 49  1  0     0  0
 53 44  2  0     0  0
 54 51  2  0     0  0
 55 52  1  0     0  0
 56 51  1  0     0  0
  2 47  1  0     0  0
 45 43  2  0     0  0
 42 46  2  0     0  0
 18 49  1  0     0  0
  8 57  1  6     0  0
 20 21  1  0     0  0
 11 58  1  6     0  0
 17 59  1  6     0  0
M  END
>  <prID>
768

>  <IDDB>
223305

>  <pIC50_HIV_Integrase>
4.920818754

>  <Q>
-8.770680842

>  <Activity_Integrase>
Inactive_Integrase

NA
NA
NA
NA
$$$$

  Accelrys05311914302D 1   1.00000     0.00000     0

 63 70  0     0  0            999 V2000
   11.1934   -5.2576    0.0000 C   0  0  0  0  0  0           0  0  0
   12.0184   -5.2576    0.0000 C   0  0  0  0  0  0           0  0  0
   11.6059   -4.5414    0.0000 C   0  0  3  0  0  0           0  0  0
    2.9625   -4.5209    0.0000 C   0  0  2  0  0  0           0  0  0
    1.5292   -4.5209    0.0000 C   0  0  0  0  0  0           0  0  0
    4.3875   -4.5167    0.0000 C   0  0  0  0  0  0           0  0  0
    2.2417   -4.9416    0.0000 C   0  0  0  0  0  0           0  0  0
    3.6751   -4.9333    0.0000 C   0  0  0  0  0  0           0  0  0
    2.9542   -3.6916    0.0000 C   0  0  2  0  0  0           0  0  0
    4.3875   -3.6916    0.0000 C   0  0  0  0  0  0           0  0  0
    0.8167   -4.9333    0.0000 C   0  0  0  0  0  0           0  0  0
    1.5292   -3.6916    0.0000 C   0  0  1  0  0  0           0  0  0
    0.1000   -4.5167    0.0000 C   0  0  0  0  0  0           0  0  0
    0.8167   -3.2833    0.0000 C   0  0  2  0  0  0           0  0  0
    0.1083   -3.6916    0.0000 C   0  0  0  0  0  0           0  0  0
    3.6626   -3.2791    0.0000 C   0  0  1  0  0  0           0  0  0
    5.1083   -4.9208    0.0000 C   0  0  0  0  0  0           0  0  0
    2.2417   -3.2833    0.0000 C   0  0  2  0  0  0           0  0  0
    8.6626   -3.6541    0.0000 N   0  0  3  0  0  0           0  0  0
    5.8167   -4.5042    0.0000 N   0  0  0  0  0  0           0  0  0
    7.2500   -4.4959    0.0000 N   0  0  3  0  0  0           0  0  0
    6.5417   -4.9166    0.0000 C   0  0  0  0  0  0           0  0  0
    3.6751   -5.7625    0.0000 O   0  0  0  0  0  0           0  0  0
    0.8167   -5.7625    0.0000 O   0  0  0  0  0  0           0  0  0
    3.6626   -2.4541    0.0000 N   0  0  3  0  0  0           0  0  0
   -0.6125   -4.9333    0.0000 C   0  0  0  0  0  0           0  0  0
    2.9542   -5.3458    0.0000 O   0  0  0  0  0  0           0  0  0
    7.9500   -3.2541    0.0000 C   0  0  0  0  0  0           0  0  0
    8.6709   -4.4834    0.0000 C   0  0  0  0  0  0           0  0  0
    5.1125   -5.7458    0.0000 O   0  0  0  0  0  0           0  0  0
    2.2417   -5.7666    0.0000 O   0  0  0  0  0  0           0  0  0
    5.0958   -3.2708    0.0000 O   0  0  0  0  0  0           0  0  0
    0.0709   -2.7624    0.0000 C   0  0  0  0  0  0           0  0  0
    7.9625   -4.9041    0.0000 C   0  0  3  0  0  0           0  0  0
    7.2417   -3.6666    0.0000 C   0  0  0  0  0  0           0  0  0
   -0.6125   -3.2833    0.0000 C   0  0  0  0  0  0           0  0  0
    0.7875   -2.4208    0.0000 O   0  0  0  0  0  0           0  0  0
   -0.6125   -5.7666    0.0000 O   0  0  0  0  0  0           0  0  0
   -1.3166   -3.6916    0.0000 C   0  0  0  0  0  0           0  0  0
   -1.3166   -4.5167    0.0000 C   0  0  0  0  0  0           0  0  0
    4.3750   -2.0417    0.0000 C   0  0  0  0  0  0           0  0  0
    2.9500   -2.0459    0.0000 C   0  0  0  0  0  0           0  0  0
   12.3304   -2.4819    0.0000 C   0  0  0  0  0  0           0  0  0
   10.9037   -2.4730    0.0000 C   0  0  0  0  0  0           0  0  0
   11.6203   -2.0742    0.0000 C   0  0  0  0  0  0           0  0  0
   10.9028   -3.2994    0.0000 C   0  0  0  0  0  0           0  0  0
   12.3297   -3.3082    0.0000 C   0  0  0  0  0  0           0  0  0
   11.6066   -3.7149    0.0000 N   0  0  3  0  0  0           0  0  0
   10.1839   -3.7061    0.0000 C   0  0  0  0  0  0           0  0  0
    9.4729   -3.2864    0.0000 C   0  0  0  0  0  0           0  0  0
   10.1926   -2.0576    0.0000 C   0  0  0  0  0  0           0  0  0
   13.0478   -2.0737    0.0000 C   0  0  0  0  0  0           0  0  0
    9.4809   -2.4642    0.0000 C   0  0  0  0  0  0           0  0  0
   11.6233   -1.2442    0.0000 O   0  0  0  0  0  0           0  0  0
   13.0542   -1.2458    0.0000 O   0  0  0  0  0  0           0  0  0
    8.7657   -2.0559    0.0000 F   0  0  0  0  0  0           0  0  0
   13.7630   -2.4820    0.0000 O   0  0  0  0  0  0           0  0  0
    2.9500   -2.8625    0.0000 H   0  0  0  0  0  0           0  0  0
    1.5083   -2.8250    0.0000 H   0  0  0  0  0  0           0  0  0
    2.2417   -2.6542    0.0000 O   0  0  0  0  0  0           0  0  0
   10.1792   -4.5292    0.0000 O   0  0  0  0  0  0           0  0  0
    9.4625   -4.9375    0.0000 C   0  0  0  0  0  0           0  0  0
    7.9583   -5.7250    0.0000 C   0  0  0  0  0  0           0  0  0
 22 20  1  0     0  0
 23  8  2  0     0  0
 24 11  2  0     0  0
 16 25  1  6     0  0
 26 13  2  0     0  0
  4 27  1  6     0  0
 28 35  1  0     0  0
 29 34  1  0     0  0
 30 17  2  0     0  0
 31  7  1  0     0  0
 32 10  1  0     0  0
 14 33  1  6     0  0
 34 21  1  0     0  0
 35 21  1  0     0  0
 36 15  2  0     0  0
 14 37  1  1     0  0
 38 26  1  0     0  0
 39 36  1  0     0  0
 40 26  1  0     0  0
 41 25  1  0     0  0
 42 25  1  0     0  0
 12  5  1  0     0  0
 10  6  2  0     0  0
 15 13  1  0     0  0
 39 40  2  0     0  0
 19 29  1  0     0  0
  5  7  2  0     0  0
  6  8  1  0     0  0
  7  4  1  0     0  0
  8  4  1  0     0  0
  9  4  1  0     0  0
 10 16  1  0     0  0
 11  5  1  0     0  0
 12 18  1  0     0  0
 13 11  1  0     0  0
 14 12  1  0     0  0
 15 14  1  0     0  0
 16  9  1  0     0  0
 17  6  1  0     0  0
 18  9  1  0     0  0
 19 28  1  0     0  0
 20 17  1  0     0  0
 43 45  1  0     0  0
 44 51  1  0     0  0
 45 44  1  0     0  0
 46 49  1  0     0  0
 47 48  1  0     0  0
 48 46  1  0     0  0
 49 50  2  0     0  0
 51 53  2  0     0  0
 52 43  1  0     0  0
 53 50  1  0     0  0
 54 45  2  0     0  0
 55 52  2  0     0  0
 56 53  1  0     0  0
 57 52  1  0     0  0
  3 48  1  0     0  0
 46 44  2  0     0  0
 43 47  2  0     0  0
 19 50  1  0     0  0
  9 58  1  6     0  0
 21 22  1  0     0  0
 12 59  1  6     0  0
  1  3  1  0     0  0
 18 60  1  6     0  0
 49 61  1  0     0  0
  2  1  1  0     0  0
 61 62  1  0     0  0
  3  2  1  0     0  0
 34 63  1  0     0  0
M  END
>  <prID>
769

>  <IDDB>
223307

>  <pIC50_HIV_Integrase>
4.869666232

>  <Q>
-9.942602001

>  <Activity_Integrase>
Inactive_Integrase

NA
NA
NA
NA
$$$$

  Accelrys05311914302D 1   1.00000     0.00000     0

 60 67  0     0  0            999 V2000
   11.1934   -5.2576    0.0000 C   0  0  0  0  0  0           0  0  0
   12.0184   -5.2576    0.0000 C   0  0  0  0  0  0           0  0  0
   11.6059   -4.5414    0.0000 C   0  0  3  0  0  0           0  0  0
    2.9625   -4.5209    0.0000 C   0  0  2  0  0  0           0  0  0
    1.5292   -4.5209    0.0000 C   0  0  0  0  0  0           0  0  0
    4.3875   -4.5167    0.0000 C   0  0  0  0  0  0           0  0  0
    2.2417   -4.9416    0.0000 C   0  0  0  0  0  0           0  0  0
    3.6751   -4.9333    0.0000 C   0  0  0  0  0  0           0  0  0
    2.9542   -3.6916    0.0000 C   0  0  2  0  0  0           0  0  0
    4.3875   -3.6916    0.0000 C   0  0  0  0  0  0           0  0  0
    0.8167   -4.9333    0.0000 C   0  0  0  0  0  0           0  0  0
    1.5292   -3.6916    0.0000 C   0  0  1  0  0  0           0  0  0
    0.1000   -4.5167    0.0000 C   0  0  0  0  0  0           0  0  0
    0.8167   -3.2833    0.0000 C   0  0  2  0  0  0           0  0  0
    0.1083   -3.6916    0.0000 C   0  0  0  0  0  0           0  0  0
    3.6626   -3.2791    0.0000 C   0  0  1  0  0  0           0  0  0
    5.1083   -4.9208    0.0000 C   0  0  0  0  0  0           0  0  0
    2.2417   -3.2833    0.0000 C   0  0  2  0  0  0           0  0  0
    8.6626   -3.6541    0.0000 N   0  0  3  0  0  0           0  0  0
    5.8167   -4.5042    0.0000 N   0  0  0  0  0  0           0  0  0
    7.2500   -4.4959    0.0000 N   0  0  3  0  0  0           0  0  0
    6.5417   -4.9166    0.0000 C   0  0  0  0  0  0           0  0  0
    3.6751   -5.7625    0.0000 O   0  0  0  0  0  0           0  0  0
    0.8167   -5.7625    0.0000 O   0  0  0  0  0  0           0  0  0
    3.6626   -2.4541    0.0000 N   0  0  3  0  0  0           0  0  0
   -0.6125   -4.9333    0.0000 C   0  0  0  0  0  0           0  0  0
    2.9542   -5.3458    0.0000 O   0  0  0  0  0  0           0  0  0
    7.9500   -3.2541    0.0000 C   0  0  0  0  0  0           0  0  0
    8.6709   -4.4834    0.0000 C   0  0  0  0  0  0           0  0  0
    5.1125   -5.7458    0.0000 O   0  0  0  0  0  0           0  0  0
    2.2417   -5.7666    0.0000 O   0  0  0  0  0  0           0  0  0
    5.0958   -3.2708    0.0000 O   0  0  0  0  0  0           0  0  0
    0.0709   -2.7624    0.0000 C   0  0  0  0  0  0           0  0  0
    7.9625   -4.9041    0.0000 C   0  0  0  0  0  0           0  0  0
    7.2417   -3.6666    0.0000 C   0  0  0  0  0  0           0  0  0
   -0.6125   -3.2833    0.0000 C   0  0  0  0  0  0           0  0  0
    0.7875   -2.4208    0.0000 O   0  0  0  0  0  0           0  0  0
   -0.6125   -5.7666    0.0000 O   0  0  0  0  0  0           0  0  0
   -1.3166   -3.6916    0.0000 C   0  0  0  0  0  0           0  0  0
   -1.3166   -4.5167    0.0000 C   0  0  0  0  0  0           0  0  0
    4.3750   -2.0417    0.0000 C   0  0  0  0  0  0           0  0  0
    2.9500   -2.0459    0.0000 C   0  0  0  0  0  0           0  0  0
   12.3304   -2.4819    0.0000 C   0  0  0  0  0  0           0  0  0
   10.9037   -2.4730    0.0000 C   0  0  0  0  0  0           0  0  0
   11.6203   -2.0742    0.0000 C   0  0  0  0  0  0           0  0  0
   10.9028   -3.2994    0.0000 C   0  0  0  0  0  0           0  0  0
   12.3297   -3.3082    0.0000 C   0  0  0  0  0  0           0  0  0
   11.6066   -3.7149    0.0000 N   0  0  3  0  0  0           0  0  0
   10.1839   -3.7061    0.0000 C   0  0  0  0  0  0           0  0  0
    9.4729   -3.2864    0.0000 C   0  0  0  0  0  0           0  0  0
   10.1926   -2.0576    0.0000 C   0  0  0  0  0  0           0  0  0
   13.0478   -2.0737    0.0000 C   0  0  0  0  0  0           0  0  0
    9.4809   -2.4642    0.0000 C   0  0  0  0  0  0           0  0  0
   11.6233   -1.2442    0.0000 O   0  0  0  0  0  0           0  0  0
   13.0542   -1.2458    0.0000 O   0  0  0  0  0  0           0  0  0
    8.7657   -2.0559    0.0000 F   0  0  0  0  0  0           0  0  0
   13.7630   -2.4820    0.0000 O   0  0  0  0  0  0           0  0  0
    2.9500   -2.8625    0.0000 H   0  0  0  0  0  0           0  0  0
    1.5083   -2.8250    0.0000 H   0  0  0  0  0  0           0  0  0
    2.2417   -2.6542    0.0000 O   0  0  0  0  0  0           0  0  0
  2  1  1  0     0  0
  3  2  1  0     0  0
 22 20  1  0     0  0
 23  8  2  0     0  0
 24 11  2  0     0  0
 16 25  1  6     0  0
 26 13  2  0     0  0
  4 27  1  6     0  0
 28 35  1  0     0  0
 29 34  1  0     0  0
 30 17  2  0     0  0
 31  7  1  0     0  0
 32 10  1  0     0  0
 14 33  1  6     0  0
 34 21  1  0     0  0
 35 21  1  0     0  0
 36 15  2  0     0  0
 14 37  1  1     0  0
 38 26  1  0     0  0
 39 36  1  0     0  0
 40 26  1  0     0  0
 41 25  1  0     0  0
 42 25  1  0     0  0
 12  5  1  0     0  0
 10  6  2  0     0  0
 15 13  1  0     0  0
 39 40  2  0     0  0
 19 29  1  0     0  0
  5  7  2  0     0  0
  6  8  1  0     0  0
  7  4  1  0     0  0
  8  4  1  0     0  0
  9  4  1  0     0  0
 10 16  1  0     0  0
 11  5  1  0     0  0
 12 18  1  0     0  0
 13 11  1  0     0  0
 14 12  1  0     0  0
 15 14  1  0     0  0
 16  9  1  0     0  0
 17  6  1  0     0  0
 18  9  1  0     0  0
 19 28  1  0     0  0
 20 17  1  0     0  0
 43 45  1  0     0  0
 44 51  1  0     0  0
 45 44  1  0     0  0
 46 49  1  0     0  0
 47 48  1  0     0  0
 48 46  1  0     0  0
 49 50  2  0     0  0
 51 53  2  0     0  0
 52 43  1  0     0  0
 53 50  1  0     0  0
 54 45  2  0     0  0
 55 52  2  0     0  0
 56 53  1  0     0  0
 57 52  1  0     0  0
  3 48  1  0     0  0
 46 44  2  0     0  0
 43 47  2  0     0  0
 19 50  1  0     0  0
  9 58  1  6     0  0
 21 22  1  0     0  0
 12 59  1  6     0  0
  1  3  1  0     0  0
 18 60  1  6     0  0
M  END
>  <prID>
770

>  <IDDB>
223308

>  <pIC50_HIV_Integrase>
4.769551079

>  <Q>
-9.403870794

>  <Activity_Integrase>
Inactive_Integrase

NA
NA
NA
NA
$$$$

  Accelrys05311914302D 1   1.00000     0.00000     0

 58 64  0     0  0            999 V2000
    1.8250   -7.3792    0.0000 C   0  0  2  0  0  0           0  0  0
    0.3917   -7.3792    0.0000 C   0  0  0  0  0  0           0  0  0
    3.2500   -7.3750    0.0000 C   0  0  0  0  0  0           0  0  0
    1.1042   -7.7999    0.0000 C   0  0  0  0  0  0           0  0  0
    2.5376   -7.7916    0.0000 C   0  0  0  0  0  0           0  0  0
    1.8167   -6.5499    0.0000 C   0  0  2  0  0  0           0  0  0
    3.2500   -6.5499    0.0000 C   0  0  0  0  0  0           0  0  0
   -0.3208   -7.7916    0.0000 C   0  0  0  0  0  0           0  0  0
    0.3917   -6.5499    0.0000 C   0  0  1  0  0  0           0  0  0
   -1.0375   -7.3750    0.0000 C   0  0  0  0  0  0           0  0  0
   -0.3208   -6.1416    0.0000 C   0  0  2  0  0  0           0  0  0
   -1.0292   -6.5499    0.0000 C   0  0  0  0  0  0           0  0  0
    2.5251   -6.1374    0.0000 C   0  0  1  0  0  0           0  0  0
    3.9708   -7.7791    0.0000 C   0  0  0  0  0  0           0  0  0
    1.1042   -6.1416    0.0000 C   0  0  0  0  0  0           0  0  0
    7.5251   -6.5124    0.0000 N   0  0  3  0  0  0           0  0  0
    4.6792   -7.3625    0.0000 N   0  0  0  0  0  0           0  0  0
    6.1125   -7.3542    0.0000 N   0  0  3  0  0  0           0  0  0
    5.4042   -7.7749    0.0000 C   0  0  0  0  0  0           0  0  0
    2.5376   -8.6208    0.0000 O   0  0  0  0  0  0           0  0  0
   -0.3208   -8.6208    0.0000 O   0  0  0  0  0  0           0  0  0
    2.5251   -5.3124    0.0000 N   0  0  3  0  0  0           0  0  0
   -1.7500   -7.7916    0.0000 C   0  0  0  0  0  0           0  0  0
    1.8167   -8.2041    0.0000 O   0  0  0  0  0  0           0  0  0
    6.8125   -6.1124    0.0000 C   0  0  0  0  0  0           0  0  0
    7.5334   -7.3417    0.0000 C   0  0  0  0  0  0           0  0  0
    3.9750   -8.6041    0.0000 O   0  0  0  0  0  0           0  0  0
    1.1042   -8.6249    0.0000 O   0  0  0  0  0  0           0  0  0
    3.9583   -6.1291    0.0000 O   0  0  0  0  0  0           0  0  0
   -1.0666   -5.6207    0.0000 C   0  0  0  0  0  0           0  0  0
    6.8250   -7.7624    0.0000 C   0  0  0  0  0  0           0  0  0
    6.1042   -6.5249    0.0000 C   0  0  0  0  0  0           0  0  0
   -1.7500   -6.1416    0.0000 C   0  0  0  0  0  0           0  0  0
   -0.3500   -5.2791    0.0000 O   0  0  0  0  0  0           0  0  0
   -1.7500   -8.6249    0.0000 O   0  0  0  0  0  0           0  0  0
   -2.4541   -6.5499    0.0000 C   0  0  0  0  0  0           0  0  0
   -2.4541   -7.3750    0.0000 C   0  0  0  0  0  0           0  0  0
    3.2375   -4.9000    0.0000 C   0  0  0  0  0  0           0  0  0
    1.8125   -4.9042    0.0000 C   0  0  0  0  0  0           0  0  0
   11.1929   -5.3402    0.0000 C   0  0  0  0  0  0           0  0  0
    9.7662   -5.3313    0.0000 C   0  0  0  0  0  0           0  0  0
   10.4828   -4.9325    0.0000 C   0  0  0  0  0  0           0  0  0
    9.7653   -6.1577    0.0000 C   0  0  0  0  0  0           0  0  0
   11.1922   -6.1665    0.0000 C   0  0  0  0  0  0           0  0  0
   10.4691   -6.5732    0.0000 N   0  0  3  0  0  0           0  0  0
    9.0464   -6.5644    0.0000 C   0  0  0  0  0  0           0  0  0
    8.3354   -6.1447    0.0000 C   0  0  0  0  0  0           0  0  0
    9.0551   -4.9159    0.0000 C   0  0  0  0  0  0           0  0  0
   11.9103   -4.9320    0.0000 C   0  0  0  0  0  0           0  0  0
    8.3434   -5.3225    0.0000 C   0  0  0  0  0  0           0  0  0
   10.4858   -4.1025    0.0000 O   0  0  0  0  0  0           0  0  0
   11.9167   -4.1041    0.0000 O   0  0  0  0  0  0           0  0  0
    7.6282   -4.9142    0.0000 F   0  0  0  0  0  0           0  0  0
   12.6255   -5.3403    0.0000 O   0  0  0  0  0  0           0  0  0
   10.4684   -7.3997    0.0000 C   0  0  0  0  0  0           0  0  0
    9.7474   -7.8057    0.0000 C   0  0  0  0  0  0           0  0  0
    1.8125   -5.7208    0.0000 H   0  0  0  0  0  0           0  0  0
    0.3708   -5.6833    0.0000 H   0  0  0  0  0  0           0  0  0
 19 17  1  0     0  0
 20  5  2  0     0  0
 21  8  2  0     0  0
 13 22  1  6     0  0
 23 10  2  0     0  0
  1 24  1  6     0  0
 25 32  1  0     0  0
 26 31  1  0     0  0
 27 14  2  0     0  0
 28  4  1  0     0  0
 29  7  1  0     0  0
 11 30  1  6     0  0
 31 18  1  0     0  0
 32 18  1  0     0  0
 33 12  2  0     0  0
 11 34  1  1     0  0
 35 23  1  0     0  0
 36 33  1  0     0  0
 37 23  1  0     0  0
 38 22  1  0     0  0
 39 22  1  0     0  0
  9  2  1  0     0  0
  7  3  2  0     0  0
 12 10  1  0     0  0
 36 37  2  0     0  0
 16 26  1  0     0  0
  2  4  2  0     0  0
  3  5  1  0     0  0
  4  1  1  0     0  0
  5  1  1  0     0  0
  6  1  1  0     0  0
  7 13  1  0     0  0
  8  2  1  0     0  0
  9 15  1  0     0  0
 10  8  1  0     0  0
 11  9  1  0     0  0
 12 11  1  0     0  0
 13  6  1  0     0  0
 14  3  1  0     0  0
 15  6  1  0     0  0
 16 25  1  0     0  0
 17 14  1  0     0  0
 40 42  1  0     0  0
 41 48  1  0     0  0
 42 41  1  0     0  0
 43 46  1  0     0  0
 44 45  1  0     0  0
 45 43  1  0     0  0
 46 47  2  0     0  0
 48 50  2  0     0  0
 49 40  1  0     0  0
 50 47  1  0     0  0
 51 42  2  0     0  0
 52 49  2  0     0  0
 53 50  1  0     0  0
 54 49  1  0     0  0
 55 45  1  0     0  0
 56 55  1  0     0  0
 43 41  2  0     0  0
 40 44  2  0     0  0
 16 47  1  0     0  0
  6 57  1  6     0  0
 18 19  1  0     0  0
  9 58  1  6     0  0
M  END
>  <prID>
771

>  <IDDB>
223317

>  <pIC50_HIV_Integrase>
4.886056648

>  <Q>
-8.039277541

>  <Activity_Integrase>
Inactive_Integrase

NA
NA
NA
NA
$$$$

  Accelrys05311914302D 1   1.00000     0.00000     0

 59 66  0     0  0            999 V2000
   11.1934   -5.2576    0.0000 C   0  0  0  0  0  0           0  0  0
   12.0184   -5.2576    0.0000 C   0  0  0  0  0  0           0  0  0
   11.6059   -4.5414    0.0000 C   0  0  3  0  0  0           0  0  0
    2.9625   -4.5209    0.0000 C   0  0  2  0  0  0           0  0  0
    1.5292   -4.5209    0.0000 C   0  0  0  0  0  0           0  0  0
    4.3875   -4.5167    0.0000 C   0  0  0  0  0  0           0  0  0
    2.2417   -4.9416    0.0000 C   0  0  0  0  0  0           0  0  0
    3.6751   -4.9333    0.0000 C   0  0  0  0  0  0           0  0  0
    2.9542   -3.6916    0.0000 C   0  0  2  0  0  0           0  0  0
    4.3875   -3.6916    0.0000 C   0  0  0  0  0  0           0  0  0
    0.8167   -4.9333    0.0000 C   0  0  0  0  0  0           0  0  0
    1.5292   -3.6916    0.0000 C   0  0  1  0  0  0           0  0  0
    0.1000   -4.5167    0.0000 C   0  0  0  0  0  0           0  0  0
    0.8167   -3.2833    0.0000 C   0  0  2  0  0  0           0  0  0
    0.1083   -3.6916    0.0000 C   0  0  0  0  0  0           0  0  0
    3.6626   -3.2791    0.0000 C   0  0  1  0  0  0           0  0  0
    5.1083   -4.9208    0.0000 C   0  0  0  0  0  0           0  0  0
    2.2417   -3.2833    0.0000 C   0  0  0  0  0  0           0  0  0
    8.6626   -3.6541    0.0000 N   0  0  3  0  0  0           0  0  0
    5.8167   -4.5042    0.0000 N   0  0  0  0  0  0           0  0  0
    7.2500   -4.4959    0.0000 N   0  0  3  0  0  0           0  0  0
    6.5417   -4.9166    0.0000 C   0  0  0  0  0  0           0  0  0
    3.6751   -5.7625    0.0000 O   0  0  0  0  0  0           0  0  0
    0.8167   -5.7625    0.0000 O   0  0  0  0  0  0           0  0  0
    3.6626   -2.4541    0.0000 N   0  0  3  0  0  0           0  0  0
   -0.6125   -4.9333    0.0000 C   0  0  0  0  0  0           0  0  0
    2.9542   -5.3458    0.0000 O   0  0  0  0  0  0           0  0  0
    7.9500   -3.2541    0.0000 C   0  0  0  0  0  0           0  0  0
    8.6709   -4.4834    0.0000 C   0  0  0  0  0  0           0  0  0
    5.1125   -5.7458    0.0000 O   0  0  0  0  0  0           0  0  0
    2.2417   -5.7666    0.0000 O   0  0  0  0  0  0           0  0  0
    5.0958   -3.2708    0.0000 O   0  0  0  0  0  0           0  0  0
    0.0709   -2.7624    0.0000 C   0  0  0  0  0  0           0  0  0
    7.9625   -4.9041    0.0000 C   0  0  0  0  0  0           0  0  0
    7.2417   -3.6666    0.0000 C   0  0  0  0  0  0           0  0  0
   -0.6125   -3.2833    0.0000 C   0  0  0  0  0  0           0  0  0
    0.7875   -2.4208    0.0000 O   0  0  0  0  0  0           0  0  0
   -0.6125   -5.7666    0.0000 O   0  0  0  0  0  0           0  0  0
   -1.3166   -3.6916    0.0000 C   0  0  0  0  0  0           0  0  0
   -1.3166   -4.5167    0.0000 C   0  0  0  0  0  0           0  0  0
    4.3750   -2.0417    0.0000 C   0  0  0  0  0  0           0  0  0
    2.9500   -2.0459    0.0000 C   0  0  0  0  0  0           0  0  0
   12.3304   -2.4819    0.0000 C   0  0  0  0  0  0           0  0  0
   10.9037   -2.4730    0.0000 C   0  0  0  0  0  0           0  0  0
   11.6203   -2.0742    0.0000 C   0  0  0  0  0  0           0  0  0
   10.9028   -3.2994    0.0000 C   0  0  0  0  0  0           0  0  0
   12.3297   -3.3082    0.0000 C   0  0  0  0  0  0           0  0  0
   11.6066   -3.7149    0.0000 N   0  0  3  0  0  0           0  0  0
   10.1839   -3.7061    0.0000 C   0  0  0  0  0  0           0  0  0
    9.4729   -3.2864    0.0000 C   0  0  0  0  0  0           0  0  0
   10.1926   -2.0576    0.0000 C   0  0  0  0  0  0           0  0  0
   13.0478   -2.0737    0.0000 C   0  0  0  0  0  0           0  0  0
    9.4809   -2.4642    0.0000 C   0  0  0  0  0  0           0  0  0
   11.6233   -1.2442    0.0000 O   0  0  0  0  0  0           0  0  0
   13.0542   -1.2458    0.0000 O   0  0  0  0  0  0           0  0  0
    8.7657   -2.0559    0.0000 F   0  0  0  0  0  0           0  0  0
   13.7630   -2.4820    0.0000 O   0  0  0  0  0  0           0  0  0
    2.9500   -2.8625    0.0000 H   0  0  0  0  0  0           0  0  0
    1.5083   -2.8250    0.0000 H   0  0  0  0  0  0           0  0  0
  1  3  1  0     0  0
  2  1  1  0     0  0
  3  2  1  0     0  0
 22 20  1  0     0  0
 23  8  2  0     0  0
 24 11  2  0     0  0
 16 25  1  6     0  0
 26 13  2  0     0  0
  4 27  1  6     0  0
 28 35  1  0     0  0
 29 34  1  0     0  0
 30 17  2  0     0  0
 31  7  1  0     0  0
 32 10  1  0     0  0
 14 33  1  6     0  0
 34 21  1  0     0  0
 35 21  1  0     0  0
 36 15  2  0     0  0
 14 37  1  1     0  0
 38 26  1  0     0  0
 39 36  1  0     0  0
 40 26  1  0     0  0
 41 25  1  0     0  0
 42 25  1  0     0  0
 12  5  1  0     0  0
 10  6  2  0     0  0
 15 13  1  0     0  0
 39 40  2  0     0  0
 19 29  1  0     0  0
  5  7  2  0     0  0
  6  8  1  0     0  0
  7  4  1  0     0  0
  8  4  1  0     0  0
  9  4  1  0     0  0
 10 16  1  0     0  0
 11  5  1  0     0  0
 12 18  1  0     0  0
 13 11  1  0     0  0
 14 12  1  0     0  0
 15 14  1  0     0  0
 16  9  1  0     0  0
 17  6  1  0     0  0
 18  9  1  0     0  0
 19 28  1  0     0  0
 20 17  1  0     0  0
 43 45  1  0     0  0
 44 51  1  0     0  0
 45 44  1  0     0  0
 46 49  1  0     0  0
 47 48  1  0     0  0
 48 46  1  0     0  0
 49 50  2  0     0  0
 51 53  2  0     0  0
 52 43  1  0     0  0
 53 50  1  0     0  0
 54 45  2  0     0  0
 55 52  2  0     0  0
 56 53  1  0     0  0
 57 52  1  0     0  0
  3 48  1  0     0  0
 46 44  2  0     0  0
 43 47  2  0     0  0
 19 50  1  0     0  0
  9 58  1  6     0  0
 21 22  1  0     0  0
 12 59  1  6     0  0
M  END
>  <prID>
772

>  <IDDB>
223320

>  <pIC50_HIV_Integrase>
4.920818754

>  <Q>
-8.672467493

>  <Activity_Integrase>
Inactive_Integrase

NA
NA
NA
NA
$$$$

  Accelrys05311914302D 1   1.00000     0.00000     0

 34 37  0     0  0            999 V2000
    7.2667   -0.3708    0.0000 C   0  0  0  0  0  0           0  0  0
    7.2667   -1.1958    0.0000 S   0  0  3  0  0  0           0  0  0
    7.9787   -1.6042    0.0000 N   0  0  3  0  0  0           0  0  0
    8.6907   -1.1958    0.0000 C   0  0  0  0  0  0           0  0  0
    8.6907   -0.3708    0.0000 C   0  0  0  0  0  0           0  0  0
    7.9787    0.0458    0.0000 C   0  0  0  0  0  0           0  0  0
    8.6992   -2.8357    0.0000 C   0  0  0  0  0  0           0  0  0
    8.6981   -3.6630    0.0000 C   0  0  0  0  0  0           0  0  0
    9.4129   -4.0759    0.0000 N   0  0  0  0  0  0           0  0  0
   10.1293   -3.6626    0.0000 C   0  0  0  0  0  0           0  0  0
   10.1265   -2.8320    0.0000 C   0  0  0  0  0  0           0  0  0
    9.4111   -2.4229    0.0000 C   0  0  0  0  0  0           0  0  0
    7.2720   -2.8393    0.0000 N   0  0  0  0  0  0           0  0  0
    7.2708   -3.6667    0.0000 C   0  0  0  0  0  0           0  0  0
    7.9856   -4.0795    0.0000 C   0  0  0  0  0  0           0  0  0
    7.9838   -2.4265    0.0000 C   0  0  0  0  0  0           0  0  0
    2.9902   -2.8458    0.0000 C   0  0  0  0  0  0           0  0  0
    2.9891   -3.6732    0.0000 C   0  0  0  0  0  0           0  0  0
    3.7039   -4.0860    0.0000 C   0  0  0  0  0  0           0  0  0
    4.4203   -3.6727    0.0000 C   0  0  0  0  0  0           0  0  0
    4.4175   -2.8422    0.0000 C   0  0  0  0  0  0           0  0  0
    3.7021   -2.4330    0.0000 C   0  0  0  0  0  0           0  0  0
    5.1333   -4.0833    0.0000 C   0  0  0  0  0  0           0  0  0
    5.8458   -3.6708    0.0000 N   0  0  0  0  0  0           0  0  0
    6.5583   -4.0792    0.0000 C   0  0  0  0  0  0           0  0  0
    2.2708   -2.4292    0.0000 F   0  0  0  0  0  0           0  0  0
    3.6958   -4.9083    0.0000 C   0  0  0  0  0  0           0  0  0
    2.9792   -5.3167    0.0000 N   0  0  0  0  0  0           0  0  0
    4.4083   -5.3208    0.0000 O   0  0  0  0  0  0           0  0  0
    2.2625   -4.9042    0.0000 C   0  0  0  0  0  0           0  0  0
    6.5542   -4.9042    0.0000 O   0  0  0  0  0  0           0  0  0
    6.4417   -1.1958    0.0000 O   0  0  0  0  0  0           0  0  0
    6.8500   -1.9083    0.0000 O   0  0  0  0  0  0           0  0  0
    7.9792   -4.9042    0.0000 O   0  0  0  0  0  0           0  0  0
  1  6  1  0     0  0
  8  9  1  0     0  0
 17 18  2  0     0  0
  2  3  1  0     0  0
 18 19  1  0     0  0
  9 10  2  0     0  0
 19 20  2  0     0  0
  3  4  1  0     0  0
 20 21  1  0     0  0
 10 11  1  0     0  0
 21 22  2  0     0  0
 22 17  1  0     0  0
  4  5  1  0     0  0
 20 23  1  0     0  0
 11 12  2  0     0  0
 23 24  1  0     0  0
 12  7  1  0     0  0
 24 25  1  0     0  0
 25 14  1  0     0  0
  5  6  1  0     0  0
 17 26  1  0     0  0
 19 27  1  0     0  0
 13 14  1  0     0  0
 27 28  1  0     0  0
  1  2  1  0     0  0
 27 29  2  0     0  0
 14 15  2  0     0  0
 28 30  1  0     0  0
 15  8  1  0     0  0
 25 31  2  0     0  0
 16  3  1  0     0  0
  7  8  2  0     0  0
  2 32  2  0     0  0
  7 16  1  0     0  0
  2 33  2  0     0  0
 16 13  2  0     0  0
 15 34  1  0     0  0
M  END
>  <prID>
773

>  <IDDB>
223720

>  <pIC50_HIV_Integrase>
8

>  <Q>
-5.556699978

>  <Activity_Integrase>
Active_Integrase

NA
NA
NA
NA
$$$$

  Accelrys05311914302D 1   1.00000     0.00000     0

 35 38  0     0  0            999 V2000
    7.2667   -0.3708    0.0000 C   0  0  0  0  0  0           0  0  0
    7.2667   -1.1958    0.0000 S   0  0  3  0  0  0           0  0  0
    7.9787   -1.6042    0.0000 N   0  0  3  0  0  0           0  0  0
    8.6907   -1.1958    0.0000 C   0  0  0  0  0  0           0  0  0
    8.6907   -0.3708    0.0000 C   0  0  0  0  0  0           0  0  0
    7.9787    0.0458    0.0000 C   0  0  0  0  0  0           0  0  0
    8.6992   -2.8357    0.0000 C   0  0  0  0  0  0           0  0  0
    8.6981   -3.6630    0.0000 C   0  0  0  0  0  0           0  0  0
    9.4129   -4.0759    0.0000 N   0  0  0  0  0  0           0  0  0
   10.1293   -3.6626    0.0000 C   0  0  0  0  0  0           0  0  0
   10.1265   -2.8320    0.0000 C   0  0  0  0  0  0           0  0  0
    9.4111   -2.4229    0.0000 C   0  0  0  0  0  0           0  0  0
    7.2720   -2.8393    0.0000 N   0  0  0  0  0  0           0  0  0
    7.2708   -3.6667    0.0000 C   0  0  0  0  0  0           0  0  0
    7.9856   -4.0795    0.0000 C   0  0  0  0  0  0           0  0  0
    7.9838   -2.4265    0.0000 C   0  0  0  0  0  0           0  0  0
    2.9902   -2.8458    0.0000 C   0  0  0  0  0  0           0  0  0
    2.9891   -3.6732    0.0000 C   0  0  0  0  0  0           0  0  0
    3.7039   -4.0860    0.0000 C   0  0  0  0  0  0           0  0  0
    4.4203   -3.6727    0.0000 C   0  0  0  0  0  0           0  0  0
    4.4175   -2.8422    0.0000 C   0  0  0  0  0  0           0  0  0
    3.7021   -2.4330    0.0000 C   0  0  0  0  0  0           0  0  0
    5.1333   -4.0833    0.0000 C   0  0  0  0  0  0           0  0  0
    5.8458   -3.6708    0.0000 N   0  0  0  0  0  0           0  0  0
    6.5583   -4.0792    0.0000 C   0  0  0  0  0  0           0  0  0
    2.2708   -2.4292    0.0000 F   0  0  0  0  0  0           0  0  0
    3.6958   -4.9083    0.0000 C   0  0  0  0  0  0           0  0  0
    2.9792   -5.3167    0.0000 N   0  0  3  0  0  0           0  0  0
    4.4083   -5.3208    0.0000 O   0  0  0  0  0  0           0  0  0
    2.2625   -4.9042    0.0000 C   0  0  0  0  0  0           0  0  0
    6.5542   -4.9042    0.0000 O   0  0  0  0  0  0           0  0  0
    6.4417   -1.1958    0.0000 O   0  0  0  0  0  0           0  0  0
    6.8500   -1.9083    0.0000 O   0  0  0  0  0  0           0  0  0
    7.9792   -4.9042    0.0000 O   0  0  0  0  0  0           0  0  0
    2.9750   -6.1417    0.0000 C   0  0  0  0  0  0           0  0  0
  8  9  1  0     0  0
 17 18  2  0     0  0
  2  3  1  0     0  0
 18 19  1  0     0  0
  9 10  2  0     0  0
 19 20  2  0     0  0
  3  4  1  0     0  0
 20 21  1  0     0  0
 10 11  1  0     0  0
 21 22  2  0     0  0
 22 17  1  0     0  0
  4  5  1  0     0  0
 20 23  1  0     0  0
 11 12  2  0     0  0
 23 24  1  0     0  0
 12  7  1  0     0  0
 24 25  1  0     0  0
 25 14  1  0     0  0
  5  6  1  0     0  0
 17 26  1  0     0  0
 19 27  1  0     0  0
 13 14  1  0     0  0
 27 28  1  0     0  0
  1  2  1  0     0  0
 27 29  2  0     0  0
 14 15  2  0     0  0
 28 30  1  0     0  0
 15  8  1  0     0  0
 25 31  2  0     0  0
 16  3  1  0     0  0
  7  8  2  0     0  0
  2 32  2  0     0  0
  7 16  1  0     0  0
  2 33  2  0     0  0
 16 13  2  0     0  0
 15 34  1  0     0  0
  1  6  1  0     0  0
 28 35  1  0     0  0
M  END
>  <prID>
774

>  <IDDB>
223721

>  <pIC50_HIV_Integrase>
6.958607315

>  <Q>
-4.437259168

>  <Activity_Integrase>
Active_Integrase

NA
NA
NA
NA
$$$$

  Accelrys05311914302D 1   1.00000     0.00000     0

 25 28  0     0  0            999 V2000
    0.3986   -3.1208    0.0000 C   0  0  0  0  0  0           0  0  0
    0.3974   -3.9482    0.0000 C   0  0  0  0  0  0           0  0  0
    1.1122   -4.3610    0.0000 C   0  0  0  0  0  0           0  0  0
    1.8287   -3.9477    0.0000 C   0  0  0  0  0  0           0  0  0
    1.8258   -3.1172    0.0000 C   0  0  0  0  0  0           0  0  0
    1.1104   -2.7080    0.0000 C   0  0  0  0  0  0           0  0  0
    2.9401   -0.6097    0.0000 C   0  0  0  0  0  0           0  0  0
    3.2092   -1.3921    0.0000 C   0  0  0  0  0  0           0  0  0
    4.0197   -1.5488    0.0000 C   0  0  0  0  0  0           0  0  0
    4.5618   -0.9241    0.0000 N   0  0  0  0  0  0           0  0  0
    4.2878   -0.1401    0.0000 C   0  0  0  0  0  0           0  0  0
    3.4780    0.0129    0.0000 C   0  0  0  0  0  0           0  0  0
    2.1152   -0.6240    0.0000 C   0  0  0  0  0  0           0  0  0
    2.5496   -1.8876    0.0000 N   0  0  3  0  0  0           0  0  0
    1.8762   -1.4124    0.0000 C   0  0  0  0  0  0           0  0  0
    0.7679   -0.1651    0.0000 C   0  0  0  0  0  0           0  0  0
    0.4993   -0.9476    0.0000 C   0  0  0  0  0  0           0  0  0
    1.0422   -1.5694    0.0000 C   0  0  0  0  0  0           0  0  0
    1.5750   -0.0047    0.0000 C   0  0  0  0  0  0           0  0  0
    4.8708    0.4500    0.0000 C   0  0  0  0  0  0           0  0  0
    5.6667    0.2375    0.0000 N   0  0  0  0  0  0           0  0  0
    6.2500    0.8250    0.0000 O   0  0  0  0  0  0           0  0  0
    4.5542    1.2208    0.0000 O   0  0  0  0  0  0           0  0  0
    2.5417   -2.7125    0.0000 C   0  0  0  0  0  0           0  0  0
   -0.3208   -4.3542    0.0000 F   0  0  0  0  0  0           0  0  0
 13  7  1  0     0  0
  6  1  1  0     0  0
  1  2  2  0     0  0
  3  4  2  0     0  0
  8 14  1  0     0  0
 14 15  1  0     0  0
 15 13  2  0     0  0
  7  8  2  0     0  0
 16 17  1  0     0  0
  8  9  1  0     0  0
 17 18  2  0     0  0
 18 15  1  0     0  0
  4  5  1  0     0  0
 13 19  1  0     0  0
 19 16  2  0     0  0
  9 10  2  0     0  0
 11 20  1  0     0  0
  2  3  1  0     0  0
 20 21  1  0     0  0
 10 11  1  0     0  0
 21 22  1  0     0  0
  5  6  2  0     0  0
 20 23  2  0     0  0
 11 12  2  0     0  0
 14 24  1  0     0  0
 24  5  1  0     0  0
 12  7  1  0     0  0
  2 25  1  0     0  0
M  END
>  <prID>
775

>  <IDDB>
223829

>  <pIC50_HIV_Integrase>
6.630784143

>  <Q>
-2.352938015

>  <Activity_Integrase>
Active_Integrase

NA
NA
NA
NA
$$$$

  Accelrys05311914302D 1   1.00000     0.00000     0

 24 27  0     0  0            999 V2000
    3.9158   -2.6346    0.0000 S   0  0  0  0  0  0           0  0  0
    3.2425   -3.1213    0.0000 C   0  0  0  0  0  0           0  0  0
    3.4992   -3.9096    0.0000 C   0  0  0  0  0  0           0  0  0
    4.3283   -3.9096    0.0000 C   0  0  0  0  0  0           0  0  0
    4.5851   -3.1213    0.0000 C   0  0  0  0  0  0           0  0  0
    2.9401   -0.6097    0.0000 C   0  0  0  0  0  0           0  0  0
    3.2092   -1.3921    0.0000 C   0  0  0  0  0  0           0  0  0
    4.0197   -1.5488    0.0000 C   0  0  0  0  0  0           0  0  0
    4.5618   -0.9241    0.0000 N   0  0  0  0  0  0           0  0  0
    4.2878   -0.1401    0.0000 C   0  0  0  0  0  0           0  0  0
    3.4780    0.0129    0.0000 C   0  0  0  0  0  0           0  0  0
    2.1152   -0.6240    0.0000 C   0  0  0  0  0  0           0  0  0
    2.5496   -1.8876    0.0000 N   0  0  3  0  0  0           0  0  0
    1.8762   -1.4124    0.0000 C   0  0  0  0  0  0           0  0  0
    0.7679   -0.1651    0.0000 C   0  0  0  0  0  0           0  0  0
    0.4993   -0.9476    0.0000 C   0  0  0  0  0  0           0  0  0
    1.0422   -1.5694    0.0000 C   0  0  0  0  0  0           0  0  0
    1.5750   -0.0047    0.0000 C   0  0  0  0  0  0           0  0  0
    4.8708    0.4500    0.0000 C   0  0  0  0  0  0           0  0  0
    5.6667    0.2375    0.0000 N   0  0  0  0  0  0           0  0  0
    6.2500    0.8250    0.0000 O   0  0  0  0  0  0           0  0  0
    4.5542    1.2208    0.0000 O   0  0  0  0  0  0           0  0  0
    2.5417   -2.7125    0.0000 C   0  0  0  0  0  0           0  0  0
    5.2958   -2.7042    0.0000 Cl  0  0  0  0  0  0           0  0  0
  2  3  2  0     0  0
  6  7  2  0     0  0
  7 13  1  0     0  0
 13 14  1  0     0  0
 14 12  2  0     0  0
  1  2  1  0     0  0
  7  8  1  0     0  0
 15 16  1  0     0  0
  3  4  1  0     0  0
 16 17  2  0     0  0
 17 14  1  0     0  0
  8  9  2  0     0  0
 12 18  1  0     0  0
 18 15  2  0     0  0
  4  5  2  0     0  0
 10 19  1  0     0  0
  9 10  1  0     0  0
 19 20  1  0     0  0
  5  1  1  0     0  0
 20 21  1  0     0  0
 10 11  2  0     0  0
 19 22  2  0     0  0
 11  6  1  0     0  0
 13 23  1  0     0  0
 23  2  1  0     0  0
 12  6  1  0     0  0
  5 24  1  0     0  0
M  END
>  <prID>
776

>  <IDDB>
223830

>  <pIC50_HIV_Integrase>
6.306273051

>  <Q>
-0.077275357

>  <Activity_Integrase>
Active_Integrase

NA
NA
NA
NA
$$$$

  Accelrys05311914302D 1   1.00000     0.00000     0

 26 29  0     0  0            999 V2000
    6.7312   -6.3336    0.0000 C   0  0  0  0  0  0           0  0  0
    7.4478   -5.9201    0.0000 C   0  0  0  0  0  0           0  0  0
    7.4470   -5.0946    0.0000 C   0  0  0  0  0  0           0  0  0
    6.7304   -4.6816    0.0000 C   0  0  0  0  0  0           0  0  0
    6.0130   -5.1002    0.0000 C   0  0  0  0  0  0           0  0  0
    6.0173   -5.9243    0.0000 C   0  0  0  0  0  0           0  0  0
    5.7026   -2.5806    0.0000 C   0  0  0  0  0  0           0  0  0
    5.9717   -3.3629    0.0000 C   0  0  0  0  0  0           0  0  0
    6.7822   -3.5197    0.0000 C   0  0  0  0  0  0           0  0  0
    7.3243   -2.8949    0.0000 N   0  0  0  0  0  0           0  0  0
    7.0503   -2.1109    0.0000 C   0  0  0  0  0  0           0  0  0
    6.2405   -1.9579    0.0000 C   0  0  0  0  0  0           0  0  0
    4.8777   -2.5948    0.0000 C   0  0  0  0  0  0           0  0  0
    5.3121   -3.8584    0.0000 N   0  0  3  0  0  0           0  0  0
    4.6387   -3.3832    0.0000 C   0  0  0  0  0  0           0  0  0
    3.5304   -2.1359    0.0000 C   0  0  0  0  0  0           0  0  0
    3.2618   -2.9184    0.0000 C   0  0  0  0  0  0           0  0  0
    3.8047   -3.5403    0.0000 C   0  0  0  0  0  0           0  0  0
    4.3375   -1.9755    0.0000 C   0  0  0  0  0  0           0  0  0
    7.6333   -1.5208    0.0000 C   0  0  0  0  0  0           0  0  0
    8.4292   -1.7333    0.0000 N   0  0  0  0  0  0           0  0  0
    9.0125   -1.1458    0.0000 O   0  0  0  0  0  0           0  0  0
    7.3167   -0.7500    0.0000 O   0  0  0  0  0  0           0  0  0
    5.3042   -4.6833    0.0000 C   0  0  0  0  0  0           0  0  0
    5.3000   -6.3292    0.0000 F   0  0  0  0  0  0           0  0  0
    6.7250   -7.1583    0.0000 Cl  0  0  0  0  0  0           0  0  0
  6  1  1  0     0  0
  1  2  2  0     0  0
  3  4  2  0     0  0
  8 14  1  0     0  0
 14 15  1  0     0  0
 15 13  2  0     0  0
  7  8  2  0     0  0
 16 17  1  0     0  0
  8  9  1  0     0  0
 17 18  2  0     0  0
 18 15  1  0     0  0
  4  5  1  0     0  0
 13 19  1  0     0  0
 19 16  2  0     0  0
  9 10  2  0     0  0
 11 20  1  0     0  0
  2  3  1  0     0  0
 20 21  1  0     0  0
 10 11  1  0     0  0
 21 22  1  0     0  0
  5  6  2  0     0  0
 20 23  2  0     0  0
 11 12  2  0     0  0
 14 24  1  0     0  0
 24  5  1  0     0  0
 12  7  1  0     0  0
  6 25  1  0     0  0
 13  7  1  0     0  0
  1 26  1  0     0  0
M  END
>  <prID>
777

>  <IDDB>
223831

>  <pIC50_HIV_Integrase>
6.397940009

>  <Q>
-3.123747298

>  <Activity_Integrase>
Active_Integrase

NA
NA
NA
NA
$$$$

  Accelrys05311914302D 1   1.00000     0.00000     0

 24 27  0     0  0            999 V2000
    4.4812   -5.0544    0.0000 C   0  0  0  0  0  0           0  0  0
    5.1978   -4.6409    0.0000 C   0  0  0  0  0  0           0  0  0
    5.1970   -3.8154    0.0000 C   0  0  0  0  0  0           0  0  0
    4.4804   -3.4025    0.0000 C   0  0  0  0  0  0           0  0  0
    3.7630   -3.8210    0.0000 C   0  0  0  0  0  0           0  0  0
    3.7673   -4.6451    0.0000 C   0  0  0  0  0  0           0  0  0
    3.4526   -1.3014    0.0000 C   0  0  0  0  0  0           0  0  0
    3.7217   -2.0838    0.0000 C   0  0  0  0  0  0           0  0  0
    4.5322   -2.2405    0.0000 C   0  0  0  0  0  0           0  0  0
    5.0743   -1.6158    0.0000 N   0  0  0  0  0  0           0  0  0
    4.8003   -0.8317    0.0000 C   0  0  0  0  0  0           0  0  0
    3.9905   -0.6787    0.0000 C   0  0  0  0  0  0           0  0  0
    2.6277   -1.3157    0.0000 C   0  0  0  0  0  0           0  0  0
    3.0621   -2.5792    0.0000 N   0  0  3  0  0  0           0  0  0
    2.3887   -2.1041    0.0000 C   0  0  0  0  0  0           0  0  0
    1.2804   -0.8567    0.0000 C   0  0  0  0  0  0           0  0  0
    1.0118   -1.6393    0.0000 C   0  0  0  0  0  0           0  0  0
    1.5547   -2.2611    0.0000 C   0  0  0  0  0  0           0  0  0
    2.0875   -0.6963    0.0000 C   0  0  0  0  0  0           0  0  0
    5.3833   -0.2417    0.0000 C   0  0  0  0  0  0           0  0  0
    6.1792   -0.4542    0.0000 N   0  0  0  0  0  0           0  0  0
    6.7625    0.1333    0.0000 O   0  0  0  0  0  0           0  0  0
    5.0667    0.5292    0.0000 O   0  0  0  0  0  0           0  0  0
    3.0542   -3.4042    0.0000 C   0  0  0  0  0  0           0  0  0
 12  7  1  0     0  0
 13  7  1  0     0  0
  6  1  1  0     0  0
  1  2  2  0     0  0
  3  4  2  0     0  0
  8 14  1  0     0  0
 14 15  1  0     0  0
 15 13  2  0     0  0
  7  8  2  0     0  0
 16 17  1  0     0  0
  8  9  1  0     0  0
 17 18  2  0     0  0
 18 15  1  0     0  0
  4  5  1  0     0  0
 13 19  1  0     0  0
 19 16  2  0     0  0
  9 10  2  0     0  0
 11 20  1  0     0  0
  2  3  1  0     0  0
 20 21  1  0     0  0
 10 11  1  0     0  0
 21 22  1  0     0  0
  5  6  2  0     0  0
 20 23  2  0     0  0
 11 12  2  0     0  0
 14 24  1  0     0  0
 24  5  1  0     0  0
M  END
>  <prID>
778

>  <IDDB>
223832

>  <pIC50_HIV_Integrase>
6.55129368

>  <Q>
0.137973886

>  <Activity_Integrase>
Active_Integrase

NA
NA
NA
NA
$$$$

  Accelrys05311914302D 1   1.00000     0.00000     0

 26 29  0     0  0            999 V2000
    4.4812   -5.0544    0.0000 C   0  0  0  0  0  0           0  0  0
    5.1978   -4.6409    0.0000 C   0  0  0  0  0  0           0  0  0
    5.1970   -3.8154    0.0000 C   0  0  0  0  0  0           0  0  0
    4.4804   -3.4025    0.0000 C   0  0  0  0  0  0           0  0  0
    3.7630   -3.8210    0.0000 C   0  0  0  0  0  0           0  0  0
    3.7673   -4.6451    0.0000 C   0  0  0  0  0  0           0  0  0
    3.4526   -1.3014    0.0000 C   0  0  0  0  0  0           0  0  0
    3.7217   -2.0838    0.0000 C   0  0  0  0  0  0           0  0  0
    4.5322   -2.2405    0.0000 C   0  0  0  0  0  0           0  0  0
    5.0743   -1.6158    0.0000 N   0  0  0  0  0  0           0  0  0
    4.8003   -0.8317    0.0000 C   0  0  0  0  0  0           0  0  0
    3.9905   -0.6787    0.0000 C   0  0  0  0  0  0           0  0  0
    2.6277   -1.3157    0.0000 C   0  0  0  0  0  0           0  0  0
    3.0621   -2.5792    0.0000 N   0  0  3  0  0  0           0  0  0
    2.3887   -2.1041    0.0000 C   0  0  0  0  0  0           0  0  0
    1.2804   -0.8567    0.0000 C   0  0  0  0  0  0           0  0  0
    1.0118   -1.6393    0.0000 C   0  0  0  0  0  0           0  0  0
    1.5547   -2.2611    0.0000 C   0  0  0  0  0  0           0  0  0
    2.0875   -0.6963    0.0000 C   0  0  0  0  0  0           0  0  0
    5.3833   -0.2417    0.0000 C   0  0  0  0  0  0           0  0  0
    6.1792   -0.4542    0.0000 N   0  0  0  0  0  0           0  0  0
    6.7625    0.1333    0.0000 O   0  0  0  0  0  0           0  0  0
    5.0667    0.5292    0.0000 O   0  0  0  0  0  0           0  0  0
    3.0542   -3.4042    0.0000 C   0  0  0  0  0  0           0  0  0
    5.9083   -5.0500    0.0000 F   0  0  0  0  0  0           0  0  0
    4.4750   -2.5750    0.0000 F   0  0  0  0  0  0           0  0  0
  6  1  1  0     0  0
  1  2  2  0     0  0
  3  4  2  0     0  0
  8 14  1  0     0  0
 14 15  1  0     0  0
 15 13  2  0     0  0
  7  8  2  0     0  0
 16 17  1  0     0  0
  8  9  1  0     0  0
 17 18  2  0     0  0
 18 15  1  0     0  0
  4  5  1  0     0  0
 13 19  1  0     0  0
 19 16  2  0     0  0
  9 10  2  0     0  0
 11 20  1  0     0  0
  2  3  1  0     0  0
 20 21  1  0     0  0
 10 11  1  0     0  0
 21 22  1  0     0  0
  5  6  2  0     0  0
 20 23  2  0     0  0
 11 12  2  0     0  0
 14 24  1  0     0  0
 24  5  1  0     0  0
 12  7  1  0     0  0
  2 25  1  0     0  0
 13  7  1  0     0  0
  4 26  1  0     0  0
M  END
>  <prID>
779

>  <IDDB>
223834

>  <pIC50_HIV_Integrase>
6.334419009

>  <Q>
-4.801166505

>  <Activity_Integrase>
Active_Integrase

NA
NA
NA
NA
$$$$

  Accelrys05311914302D 1   1.00000     0.00000     0

 27 30  0     0  0            999 V2000
    4.4812   -5.0544    0.0000 C   0  0  0  0  0  0           0  0  0
    5.1978   -4.6409    0.0000 C   0  0  0  0  0  0           0  0  0
    5.1970   -3.8154    0.0000 C   0  0  0  0  0  0           0  0  0
    4.4804   -3.4025    0.0000 C   0  0  0  0  0  0           0  0  0
    3.7630   -3.8210    0.0000 C   0  0  0  0  0  0           0  0  0
    3.7673   -4.6451    0.0000 C   0  0  0  0  0  0           0  0  0
    3.4526   -1.3014    0.0000 C   0  0  0  0  0  0           0  0  0
    3.7217   -2.0838    0.0000 C   0  0  0  0  0  0           0  0  0
    4.5322   -2.2405    0.0000 C   0  0  0  0  0  0           0  0  0
    5.0743   -1.6158    0.0000 N   0  0  0  0  0  0           0  0  0
    4.8003   -0.8317    0.0000 C   0  0  0  0  0  0           0  0  0
    3.9905   -0.6787    0.0000 C   0  0  0  0  0  0           0  0  0
    2.6277   -1.3157    0.0000 C   0  0  0  0  0  0           0  0  0
    3.0621   -2.5792    0.0000 N   0  0  3  0  0  0           0  0  0
    2.3887   -2.1041    0.0000 C   0  0  0  0  0  0           0  0  0
    1.2804   -0.8567    0.0000 C   0  0  0  0  0  0           0  0  0
    1.0118   -1.6393    0.0000 C   0  0  0  0  0  0           0  0  0
    1.5547   -2.2611    0.0000 C   0  0  0  0  0  0           0  0  0
    2.0875   -0.6963    0.0000 C   0  0  0  0  0  0           0  0  0
    5.3833   -0.2417    0.0000 C   0  0  0  0  0  0           0  0  0
    6.1792   -0.4542    0.0000 N   0  0  0  0  0  0           0  0  0
    6.7625    0.1333    0.0000 O   0  0  0  0  0  0           0  0  0
    5.0667    0.5292    0.0000 O   0  0  0  0  0  0           0  0  0
    3.0542   -3.4042    0.0000 C   0  0  0  0  0  0           0  0  0
    4.4750   -2.5750    0.0000 F   0  0  0  0  0  0           0  0  0
    5.9083   -3.3958    0.0000 Cl  0  0  0  0  0  0           0  0  0
    3.0500   -5.0500    0.0000 F   0  0  0  0  0  0           0  0  0
  1  2  2  0     0  0
  3  4  2  0     0  0
  8 14  1  0     0  0
 14 15  1  0     0  0
 15 13  2  0     0  0
  7  8  2  0     0  0
 16 17  1  0     0  0
  8  9  1  0     0  0
 17 18  2  0     0  0
 18 15  1  0     0  0
  4  5  1  0     0  0
 13 19  1  0     0  0
 19 16  2  0     0  0
  9 10  2  0     0  0
 11 20  1  0     0  0
  2  3  1  0     0  0
 20 21  1  0     0  0
 10 11  1  0     0  0
 21 22  1  0     0  0
  5  6  2  0     0  0
 20 23  2  0     0  0
 11 12  2  0     0  0
 14 24  1  0     0  0
 24  5  1  0     0  0
 12  7  1  0     0  0
  4 25  1  0     0  0
 13  7  1  0     0  0
  3 26  1  0     0  0
  6  1  1  0     0  0
  6 27  1  0     0  0
M  END
>  <prID>
780

>  <IDDB>
223835

>  <pIC50_HIV_Integrase>
5.8569852

>  <Q>
-5.569103403

>  <Activity_Integrase>
Inactive_Integrase

NA
NA
NA
NA
$$$$

  Accelrys05311914302D 1   1.00000     0.00000     0

 26 29  0     0  0            999 V2000
    4.4812   -5.0544    0.0000 C   0  0  0  0  0  0           0  0  0
    5.1978   -4.6409    0.0000 C   0  0  0  0  0  0           0  0  0
    5.1970   -3.8154    0.0000 C   0  0  0  0  0  0           0  0  0
    4.4804   -3.4025    0.0000 C   0  0  0  0  0  0           0  0  0
    3.7630   -3.8210    0.0000 C   0  0  0  0  0  0           0  0  0
    3.7673   -4.6451    0.0000 C   0  0  0  0  0  0           0  0  0
    3.4526   -1.3014    0.0000 C   0  0  0  0  0  0           0  0  0
    3.7217   -2.0838    0.0000 C   0  0  0  0  0  0           0  0  0
    4.5322   -2.2405    0.0000 C   0  0  0  0  0  0           0  0  0
    5.0743   -1.6158    0.0000 N   0  0  0  0  0  0           0  0  0
    4.8003   -0.8317    0.0000 C   0  0  0  0  0  0           0  0  0
    3.9905   -0.6787    0.0000 C   0  0  0  0  0  0           0  0  0
    2.6277   -1.3157    0.0000 C   0  0  0  0  0  0           0  0  0
    3.0621   -2.5792    0.0000 N   0  0  3  0  0  0           0  0  0
    2.3887   -2.1041    0.0000 C   0  0  0  0  0  0           0  0  0
    1.2804   -0.8567    0.0000 C   0  0  0  0  0  0           0  0  0
    1.0118   -1.6393    0.0000 C   0  0  0  0  0  0           0  0  0
    1.5547   -2.2611    0.0000 C   0  0  0  0  0  0           0  0  0
    2.0875   -0.6963    0.0000 C   0  0  0  0  0  0           0  0  0
    5.3833   -0.2417    0.0000 C   0  0  0  0  0  0           0  0  0
    6.1792   -0.4542    0.0000 N   0  0  0  0  0  0           0  0  0
    6.7625    0.1333    0.0000 O   0  0  0  0  0  0           0  0  0
    5.0667    0.5292    0.0000 O   0  0  0  0  0  0           0  0  0
    3.0542   -3.4042    0.0000 C   0  0  0  0  0  0           0  0  0
    5.9083   -3.3958    0.0000 Cl  0  0  0  0  0  0           0  0  0
    0.6917   -0.2667    0.0000 N   0  0  0  0  0  0           0  0  0
  6  1  1  0     0  0
  1  2  2  0     0  0
  3  4  2  0     0  0
  8 14  1  0     0  0
 14 15  1  0     0  0
 15 13  2  0     0  0
  7  8  2  0     0  0
 16 17  1  0     0  0
  8  9  1  0     0  0
 17 18  2  0     0  0
 18 15  1  0     0  0
  4  5  1  0     0  0
 13 19  1  0     0  0
 19 16  2  0     0  0
  9 10  2  0     0  0
 11 20  1  0     0  0
  2  3  1  0     0  0
 20 21  1  0     0  0
 10 11  1  0     0  0
 21 22  1  0     0  0
  5  6  2  0     0  0
 20 23  2  0     0  0
 11 12  2  0     0  0
 14 24  1  0     0  0
 24  5  1  0     0  0
 12  7  1  0     0  0
  3 25  1  0     0  0
 13  7  1  0     0  0
 16 26  1  0     0  0
M  END
>  <prID>
781

>  <IDDB>
223836

>  <pIC50_HIV_Integrase>
6.14691047

>  <Q>
-2.258151881

>  <Activity_Integrase>
Active_Integrase

NA
NA
NA
NA
$$$$

  Accelrys05311914302D 1   1.00000     0.00000     0

 26 29  0     0  0            999 V2000
    4.4812   -5.0544    0.0000 C   0  0  0  0  0  0           0  0  0
    5.1978   -4.6409    0.0000 C   0  0  0  0  0  0           0  0  0
    5.1970   -3.8154    0.0000 C   0  0  0  0  0  0           0  0  0
    4.4804   -3.4025    0.0000 C   0  0  0  0  0  0           0  0  0
    3.7630   -3.8210    0.0000 C   0  0  0  0  0  0           0  0  0
    3.7673   -4.6451    0.0000 C   0  0  0  0  0  0           0  0  0
    3.4526   -1.3014    0.0000 C   0  0  0  0  0  0           0  0  0
    3.7217   -2.0838    0.0000 C   0  0  0  0  0  0           0  0  0
    4.5322   -2.2405    0.0000 C   0  0  0  0  0  0           0  0  0
    5.0743   -1.6158    0.0000 N   0  0  0  0  0  0           0  0  0
    4.8003   -0.8317    0.0000 C   0  0  0  0  0  0           0  0  0
    3.9905   -0.6787    0.0000 C   0  0  0  0  0  0           0  0  0
    2.6277   -1.3157    0.0000 C   0  0  0  0  0  0           0  0  0
    3.0621   -2.5792    0.0000 N   0  0  3  0  0  0           0  0  0
    2.3887   -2.1041    0.0000 C   0  0  0  0  0  0           0  0  0
    1.2804   -0.8567    0.0000 C   0  0  0  0  0  0           0  0  0
    1.0118   -1.6393    0.0000 C   0  0  0  0  0  0           0  0  0
    1.5547   -2.2611    0.0000 C   0  0  0  0  0  0           0  0  0
    2.0875   -0.6963    0.0000 C   0  0  0  0  0  0           0  0  0
    5.3833   -0.2417    0.0000 C   0  0  0  0  0  0           0  0  0
    6.1792   -0.4542    0.0000 N   0  0  3  0  0  0           0  0  0
    6.5500   -1.3708    0.0000 O   0  0  0  0  0  0           0  0  0
    5.0667    0.5292    0.0000 O   0  0  0  0  0  0           0  0  0
    3.0542   -3.4042    0.0000 C   0  0  0  0  0  0           0  0  0
    5.9083   -5.0500    0.0000 F   0  0  0  0  0  0           0  0  0
    6.8000    0.2208    0.0000 C   0  0  0  0  0  0           0  0  0
  6  1  1  0     0  0
  1  2  2  0     0  0
  3  4  2  0     0  0
  8 14  1  0     0  0
 14 15  1  0     0  0
 15 13  2  0     0  0
  7  8  2  0     0  0
 16 17  1  0     0  0
  8  9  1  0     0  0
 17 18  2  0     0  0
 18 15  1  0     0  0
  4  5  1  0     0  0
 13 19  1  0     0  0
 19 16  2  0     0  0
  9 10  2  0     0  0
 11 20  1  0     0  0
  2  3  1  0     0  0
 20 21  1  0     0  0
 10 11  1  0     0  0
 21 22  1  0     0  0
  5  6  2  0     0  0
 20 23  2  0     0  0
 11 12  2  0     0  0
 14 24  1  0     0  0
 24  5  1  0     0  0
 12  7  1  0     0  0
  2 25  1  0     0  0
 13  7  1  0     0  0
 21 26  1  0     0  0
M  END
>  <prID>
782

>  <IDDB>
223837

>  <pIC50_HIV_Integrase>
6.155522824

>  <Q>
-1.469501674

>  <Activity_Integrase>
Active_Integrase

NA
NA
NA
NA
$$$$

  Accelrys05311914302D 1   1.00000     0.00000     0

 63 65  0     0  0            999 V2000
    3.4468   -1.8392    0.0000 N   0  0  0  0  0  0           0  0  0
    4.0383   -2.2717    0.0000 C   0  0  2  0  0  0           0  0  0
    4.6641   -1.0975    0.0000 O   0  0  0  0  0  0           0  0  0
    4.6613   -1.8506    0.0000 C   0  0  0  0  0  0           0  0  0
    4.0386   -3.0267    0.0000 C   0  0  0  0  0  0           0  0  0
    4.6993   -4.1531    0.0000 N   0  0  0  0  0  0           0  0  0
    5.4149   -4.3775    0.0000 C   0  0  0  0  0  0           0  0  0
    5.8495   -3.7663    0.0000 N   0  0  0  0  0  0           0  0  0
    5.4025   -3.1641    0.0000 C   0  0  0  0  0  0           0  0  0
    4.6916   -3.4031    0.0000 C   0  0  0  0  0  0           0  0  0
    2.6885   -1.8483    0.0000 N   0  0  0  0  0  0           0  0  0
    3.2800   -1.4158    0.0000 C   0  0  2  0  0  0           0  0  0
    3.9057   -2.5900    0.0000 O   0  0  0  0  0  0           0  0  0
    3.9029   -1.8369    0.0000 C   0  0  0  0  0  0           0  0  0
    3.2803   -0.6608    0.0000 C   0  0  0  0  0  0           0  0  0
    3.9300   -0.2860    0.0000 C   0  0  0  0  0  0           0  0  0
    3.9303    0.4640    0.0000 O   0  0  0  0  0  0           0  0  0
    4.5794   -0.6613    0.0000 N   0  0  0  0  0  0           0  0  0
    4.2052   -1.8483    0.0000 N   0  0  0  0  0  0           0  0  0
    4.7967   -1.4158    0.0000 C   0  0  0  0  0  0           0  0  0
    5.4224   -2.5900    0.0000 O   0  0  0  0  0  0           0  0  0
    5.4196   -1.8369    0.0000 C   0  0  0  0  0  0           0  0  0
    1.9302   -1.8392    0.0000 N   0  0  0  0  0  0           0  0  0
    2.5217   -2.2717    0.0000 C   0  0  2  0  0  0           0  0  0
    3.1474   -1.0975    0.0000 O   0  0  0  0  0  0           0  0  0
    3.1446   -1.8506    0.0000 C   0  0  0  0  0  0           0  0  0
    2.5220   -3.0267    0.0000 C   0  0  0  0  0  0           0  0  0
    3.1826   -4.1531    0.0000 N   0  0  0  0  0  0           0  0  0
    3.8982   -4.3775    0.0000 C   0  0  0  0  0  0           0  0  0
    4.3328   -3.7663    0.0000 N   0  0  0  0  0  0           0  0  0
    3.8858   -3.1641    0.0000 C   0  0  0  0  0  0           0  0  0
    3.1749   -3.4031    0.0000 C   0  0  0  0  0  0           0  0  0
    4.9635   -1.8392    0.0000 N   0  0  0  0  0  0           0  0  0
    5.5550   -2.2717    0.0000 C   0  0  2  0  0  0           0  0  0
    6.1807   -1.0975    0.0000 O   0  0  0  0  0  0           0  0  0
    6.1779   -1.8506    0.0000 C   0  0  0  0  0  0           0  0  0
    5.5553   -3.0267    0.0000 C   0  0  0  0  0  0           0  0  0
    6.2050   -3.4015    0.0000 C   0  0  0  0  0  0           0  0  0
    6.2053   -4.1515    0.0000 C   0  0  0  0  0  0           0  0  0
    6.8550   -4.5262    0.0000 C   0  0  0  0  0  0           0  0  0
    6.8553   -5.2762    0.0000 N   0  0  0  0  0  0           0  0  0
    1.1718   -1.8483    0.0000 N   0  0  0  0  0  0           0  0  0
    1.7633   -1.4158    0.0000 C   0  0  2  0  0  0           0  0  0
    2.3891   -2.5900    0.0000 O   0  0  0  0  0  0           0  0  0
    2.3863   -1.8369    0.0000 C   0  0  0  0  0  0           0  0  0
    1.7636   -0.6608    0.0000 C   0  0  0  0  0  0           0  0  0
    2.4125    0.4667    0.0000 C   0  0  0  0  0  0           0  0  0
    2.4125   -0.2833    0.0000 C   0  0  0  0  0  0           0  0  0
    3.0620   -0.6583    0.0000 C   0  0  0  0  0  0           0  0  0
    3.7115   -0.2833    0.0000 C   0  0  0  0  0  0           0  0  0
    3.7115    0.4667    0.0000 C   0  0  0  0  0  0           0  0  0
    3.0620    0.8417    0.0000 C   0  0  0  0  0  0           0  0  0
    5.7218   -1.8483    0.0000 N   0  0  0  0  0  0           0  0  0
    6.3133   -1.4158    0.0000 C   0  0  2  0  0  0           0  0  0
    6.9391   -2.5900    0.0000 O   0  0  0  0  0  0           0  0  0
    6.9363   -1.8369    0.0000 C   0  0  0  0  0  0           0  0  0
    6.3136   -0.6608    0.0000 C   0  0  0  0  0  0           0  0  0
    6.9633   -0.2860    0.0000 C   0  0  0  0  0  0           0  0  0
    6.9636    0.4640    0.0000 C   0  0  0  0  0  0           0  0  0
    7.6133    0.8387    0.0000 O   0  0  0  0  0  0           0  0  0
    6.3143    0.8392    0.0000 N   0  0  0  0  0  0           0  0  0
    0.9500   -1.8583    0.0000 H   0  0  0  0  0  0           0  0  0
    7.1500   -1.8375    0.0000 O   0  0  0  0  0  0           0  0  0
 42 62  1  0     0  0
 23 24  1  0     0  0
 24 26  1  0     0  0
 26 25  2  0     0  0
 24 27  1  6     0  0
 27 32  1  0     0  0
 28 29  1  0     0  0
 29 30  2  0     0  0
 30 31  1  0     0  0
 31 32  2  0     0  0
 32 28  1  0     0  0
 26 11  1  0     0  0
 14  1  1  0     0  0
  4 19  1  0     0  0
 22 33  1  0     0  0
 36 53  1  0     0  0
 56 63  1  0     0  0
 15 16  1  0     0  0
 16 17  2  0     0  0
 16 18  1  0     0  0
 33 34  1  0     0  0
 34 36  1  0     0  0
 36 35  2  0     0  0
 34 37  1  6     0  0
 37 38  1  0     0  0
 38 39  1  0     0  0
 39 40  1  0     0  0
 40 41  1  0     0  0
 11 12  1  0     0  0
 12 14  1  0     0  0
 14 13  2  0     0  0
 12 15  1  1     0  0
  1  2  1  0     0  0
  2  4  1  0     0  0
  4  3  2  0     0  0
 19 20  1  0     0  0
 20 22  1  0     0  0
 49 50  2  0     0  0
 50 51  1  0     0  0
 51 52  2  0     0  0
 52 47  1  0     0  0
 42 43  1  0     0  0
 43 45  1  0     0  0
 45 44  2  0     0  0
 43 46  1  1     0  0
 46 48  1  0     0  0
 47 48  2  0     0  0
 48 49  1  0     0  0
 22 21  2  0     0  0
  2  5  1  6     0  0
  5 10  1  0     0  0
  6  7  1  0     0  0
  7  8  2  0     0  0
  8  9  1  0     0  0
  9 10  2  0     0  0
 10  6  1  0     0  0
 53 54  1  0     0  0
 54 56  1  0     0  0
 56 55  2  0     0  0
 54 57  1  1     0  0
 57 58  1  0     0  0
 58 59  1  0     0  0
 59 60  2  0     0  0
 59 61  1  0     0  0
 45 23  1  0     0  0
M  STY  8   1 SUP   2 SUP   3 SUP   4 SUP   5 SUP   6 SUP   7 SUP   8 SUP
M  STY  1   9 SUP
M  SLB  8   1   1   2   2   3   3   4   4   5   5   6   6   7   7   8   8
M  SLB  1   9   9
M  SAL   1 10  23  24  25  26  27  28  29  30  31  32
M  SBL   1  2  12  65
M  SMT   1 H
M  SBV   1  65    0.4600    0.0000
M  SBV   1  12   -0.4600    0.0100
M  SCL   1 AA
M  SAP   1  2  23  45 Al  26  11 Br
M  SAL   2  4  19  20  21  22
M  SBL   2  2  14  15
M  SMT   2 G
M  SBV   2  14    0.4500   -0.0100
M  SBV   2  15   -0.4500    0.0000
M  SCL   2 AA
M  SAP   2  2  19   4 Al  22  33 Br
M  SAL   3  9  33  34  35  36  37  38  39  40  41
M  SBL   3  2  15  16
M  SMT   3 K
M  SBV   3  15    0.4500    0.0000
M  SBV   3  16   -0.4500    0.0100
M  SCL   3 AA
M  SAP   3  2  33  22 Al  36  53 Br
M  SAL   4  8  11  12  13  14  15  16  17  18
M  SBL   4  2  12  13
M  SMT   4 N
M  SBV   4  12    0.4600   -0.0100
M  SBV   4  13   -0.4600    0.0000
M  SCL   4 AA
M  SAP   4  2  11  26 Al  14   1 Br
M  SAL   5  9  53  54  55  56  57  58  59  60  61
M  SBL   5  2  16  17
M  SMT   5 Q
M  SBV   5  16    0.4500   -0.0100
M  SBV   5  17    0.2200    0.0000
M  SCL   5 AA
M  SAP   5  2  53  36 Al  56  63 Br
M  SAL   6 10   1   2   3   4   5   6   7   8   9  10
M  SBL   6  2  13  14
M  SMT   6 H
M  SBV   6  13    0.4600    0.0000
M  SBV   6  14   -0.4500    0.0100
M  SCL   6 AA
M  SAP   6  2   1  14 Al   4  19 Br
M  SAL   7  1  62
M  SBL   7  1   1
M  SMT   7 NH2
M  SBV   7   1    0.2200    0.0100
M  SCL   7 LGRP
M  SAL   8 11  42  43  44  45  46  47  48  49  50  51  52
M  SBL   8  2   1  65
M  SMT   8 F
M  SBV   8   1   -0.2200   -0.0100
M  SBV   8  65   -0.4600    0.0000
M  SCL   8 AA
M  SAP   8  2  42  62 Al  45  23 Br
M  SAL   9  1  63
M  SBL   9  1  17
M  SMT   9 COOH
M  SBV   9  17   -0.2200    0.0000
M  SCL   9 LGRP
M  END
>  <prID>
783

>  <IDDB>
223872

>  <pIC50_HIV_Integrase>
4.301029996

>  <Q>
-15.75224114

>  <Activity_Integrase>
Inactive_Integrase

NA
NA
NA
NA
$$$$

  Accelrys05311914302D 1   1.00000     0.00000     0

 36 39  0     0  0            999 V2000
    5.7632   -2.5336    0.0000 C   0  0  0  0  0  0           0  0  0
    5.7620   -3.3610    0.0000 C   0  0  0  0  0  0           0  0  0
    6.4768   -3.7738    0.0000 C   0  0  0  0  0  0           0  0  0
    7.1932   -3.3605    0.0000 C   0  0  0  0  0  0           0  0  0
    7.1904   -2.5300    0.0000 C   0  0  0  0  0  0           0  0  0
    6.4750   -2.1208    0.0000 C   0  0  0  0  0  0           0  0  0
    3.6322   -1.3052    0.0000 C   0  0  0  0  0  0           0  0  0
    4.3447   -0.8927    0.0000 C   0  0  0  0  0  0           0  0  0
    5.0572   -1.3010    0.0000 O   0  0  0  0  0  0           0  0  0
    5.7697   -0.8885    0.0000 C   0  0  3  0  0  0           0  0  0
    6.4822   -1.2969    0.0000 C   0  0  0  0  0  0           0  0  0
    2.2007   -3.7836    0.0000 C   0  0  0  0  0  0           0  0  0
    2.1995   -4.6110    0.0000 C   0  0  0  0  0  0           0  0  0
    2.9143   -5.0238    0.0000 C   0  0  0  0  0  0           0  0  0
    3.6307   -4.6105    0.0000 C   0  0  0  0  0  0           0  0  0
    3.6279   -3.7800    0.0000 C   0  0  0  0  0  0           0  0  0
    2.9125   -3.3708    0.0000 C   0  0  0  0  0  0           0  0  0
    2.2050   -1.3088    0.0000 C   0  0  0  0  0  0           0  0  0
    2.2038   -2.1362    0.0000 C   0  0  0  0  0  0           0  0  0
    2.9186   -2.5491    0.0000 C   0  0  0  0  0  0           0  0  0
    3.6351   -2.1357    0.0000 C   0  0  0  0  0  0           0  0  0
    2.9168   -0.8961    0.0000 C   0  0  0  0  0  0           0  0  0
    0.7777   -1.3125    0.0000 C   0  0  0  0  0  0           0  0  0
    0.7766   -2.1398    0.0000 C   0  0  0  0  0  0           0  0  0
    1.4914   -2.5527    0.0000 C   0  0  0  0  0  0           0  0  0
    1.4896   -0.8997    0.0000 C   0  0  0  0  0  0           0  0  0
    4.3375   -0.0667    0.0000 O   0  0  0  0  0  0           0  0  0
    5.7625   -0.0625    0.0000 C   0  0  0  0  0  0           0  0  0
    6.4750    0.3542    0.0000 O   0  0  0  0  0  0           0  0  0
    5.0458    0.3500    0.0000 O   0  0  0  0  0  0           0  0  0
    0.0583   -0.8958    0.0000 O   0  0  0  0  0  0           0  0  0
    0.0583   -2.5458    0.0000 O   0  0  0  0  0  0           0  0  0
    2.9083   -5.8458    0.0000 O   0  0  0  0  0  0           0  0  0
    4.3417   -5.0208    0.0000 O   0  0  0  0  0  0           0  0  0
    6.4708   -4.5958    0.0000 O   0  0  0  0  0  0           0  0  0
    7.9042   -3.7708    0.0000 O   0  0  0  0  0  0           0  0  0
 18 19  2  0     0  0
  9 10  1  0     0  0
 19 20  1  0     0  0
  2  3  1  0     0  0
 20 21  2  0     0  0
 21  7  1  0     0  0
 10 11  1  0     0  0
  7 22  2  0     0  0
 22 18  1  0     0  0
  5  6  2  0     0  0
  6  1  1  0     0  0
 23 24  1  0     0  0
 12 13  2  0     0  0
 24 25  2  0     0  0
 25 19  1  0     0  0
  1  2  2  0     0  0
 18 26  1  0     0  0
 26 23  2  0     0  0
 20 17  1  0     0  0
 13 14  1  0     0  0
  8 27  2  0     0  0
  3  4  2  0     0  0
 10 28  1  0     0  0
 14 15  2  0     0  0
 28 29  1  0     0  0
  7  8  1  0     0  0
 28 30  2  0     0  0
 11  6  1  0     0  0
 15 16  1  0     0  0
 23 31  1  0     0  0
 24 32  1  0     0  0
 16 17  2  0     0  0
 14 33  1  0     0  0
 17 12  1  0     0  0
 15 34  1  0     0  0
  8  9  1  0     0  0
  3 35  1  0     0  0
  4  5  1  0     0  0
  4 36  1  0     0  0
M  END
>  <prID>
784

>  <IDDB>
224586

>  <pIC50_HIV_Integrase>
5.823908741

>  <Q>
-4.239030136

>  <Activity_Integrase>
Inactive_Integrase

NA
NA
NA
NA
$$$$

  Accelrys05311914302D 1   1.00000     0.00000     0

 32 34  0     0  0            999 V2000
    8.3083   -1.9833    0.0000 C   0  0  0  0  0  0           0  0  0
    8.3072   -2.8107    0.0000 C   0  0  0  0  0  0           0  0  0
    9.0220   -3.2236    0.0000 C   0  0  0  0  0  0           0  0  0
    9.7384   -2.8102    0.0000 C   0  0  0  0  0  0           0  0  0
    9.7356   -1.9797    0.0000 C   0  0  0  0  0  0           0  0  0
    9.0202   -1.5706    0.0000 C   0  0  0  0  0  0           0  0  0
    5.8041   -2.7750    0.0000 C   0  0  0  0  0  0           0  0  0
    6.6291   -2.7750    0.0000 S   0  0  0  0  0  0           0  0  0
    6.8859   -1.9909    0.0000 C   0  0  0  0  0  0           0  0  0
    6.2166   -1.5042    0.0000 C   0  0  0  0  0  0           0  0  0
    5.5516   -1.9909    0.0000 N   0  0  3  0  0  0           0  0  0
    1.9912   -1.5769    0.0000 C   0  0  0  0  0  0           0  0  0
    2.7037   -1.9894    0.0000 N   0  0  0  0  0  0           0  0  0
    3.4162   -1.5769    0.0000 C   0  0  0  0  0  0           0  0  0
    4.1287   -1.9894    0.0000 C   0  0  0  0  0  0           0  0  0
    4.8412   -1.5769    0.0000 C   0  0  0  0  0  0           0  0  0
    0.5611   -0.7500    0.0000 C   0  0  0  0  0  0           0  0  0
    0.5599   -1.5773    0.0000 C   0  0  0  0  0  0           0  0  0
    1.2747   -1.9902    0.0000 C   0  0  0  0  0  0           0  0  0
    1.9883   -0.7463    0.0000 C   0  0  0  0  0  0           0  0  0
    1.2729   -0.3372    0.0000 C   0  0  0  0  0  0           0  0  0
    3.4083   -0.7500    0.0000 O   0  0  0  0  0  0           0  0  0
    6.2083   -0.6792    0.0000 O   0  0  0  0  0  0           0  0  0
    7.5958   -1.5708    0.0000 C   0  0  0  0  0  0           0  0  0
    5.2125   -3.3583    0.0000 S   0  0  0  0  0  0           0  0  0
    1.2667    0.4917    0.0000 C   0  0  0  0  0  0           0  0  0
    0.5500    0.9042    0.0000 O   0  0  0  0  0  0           0  0  0
    1.9792    0.9083    0.0000 O   0  0  0  0  0  0           0  0  0
   -0.1583   -0.3333    0.0000 O   0  0  0  0  0  0           0  0  0
   10.4500   -3.2208    0.0000 O   0  0  0  0  0  0           0  0  0
   11.1625   -2.8042    0.0000 C   0  0  0  0  0  0           0  0  0
   11.8750   -3.2167    0.0000 C   0  0  0  0  0  0           0  0  0
 16 11  1  0     0  0
  4  5  1  0     0  0
 17 18  2  0     0  0
  2  3  1  0     0  0
 18 19  1  0     0  0
 19 12  2  0     0  0
  8  9  1  0     0  0
 12 20  1  0     0  0
  9 10  1  0     0  0
 20 21  2  0     0  0
 21 17  1  0     0  0
 10 11  1  0     0  0
 14 22  2  0     0  0
 11  7  1  0     0  0
 10 23  2  0     0  0
  5  6  2  0     0  0
  9 24  2  0     0  0
 24  1  1  0     0  0
  6  1  1  0     0  0
  7 25  2  0     0  0
 12 13  1  0     0  0
 21 26  1  0     0  0
  7  8  1  0     0  0
 26 27  2  0     0  0
 13 14  1  0     0  0
 26 28  1  0     0  0
  1  2  2  0     0  0
 17 29  1  0     0  0
 14 15  1  0     0  0
  4 30  1  0     0  0
  3  4  2  0     0  0
 30 31  1  0     0  0
 15 16  1  0     0  0
 31 32  1  0     0  0
M  END
>  <prID>
785

>  <IDDB>
225299

>  <pIC50_HIV_Integrase>
4.958607315

>  <Q>
0.694326822

>  <Activity_Integrase>
Inactive_Integrase

NA
NA
NA
NA
$$$$

  Accelrys05311914302D 1   1.00000     0.00000     0

 32 35  0     0  0            999 V2000
    9.7421   -2.8095    0.0000 C   0  0  0  0  0  0           0  0  0
   10.5273   -3.0627    0.0000 O   0  0  0  0  0  0           0  0  0
   11.0124   -2.3953    0.0000 C   0  0  0  0  0  0           0  0  0
   10.5249   -1.7266    0.0000 O   0  0  0  0  0  0           0  0  0
    9.7425   -1.9857    0.0000 C   0  0  0  0  0  0           0  0  0
    8.3083   -1.9833    0.0000 C   0  0  0  0  0  0           0  0  0
    8.3072   -2.8107    0.0000 C   0  0  0  0  0  0           0  0  0
    9.0220   -3.2236    0.0000 C   0  0  0  0  0  0           0  0  0
    9.0202   -1.5706    0.0000 C   0  0  0  0  0  0           0  0  0
    5.8041   -2.7750    0.0000 C   0  0  0  0  0  0           0  0  0
    6.6291   -2.7750    0.0000 S   0  0  0  0  0  0           0  0  0
    6.8859   -1.9909    0.0000 C   0  0  0  0  0  0           0  0  0
    6.2166   -1.5042    0.0000 C   0  0  0  0  0  0           0  0  0
    5.5516   -1.9909    0.0000 N   0  0  3  0  0  0           0  0  0
    1.9912   -1.5769    0.0000 C   0  0  0  0  0  0           0  0  0
    2.7037   -1.9894    0.0000 N   0  0  0  0  0  0           0  0  0
    3.4162   -1.5769    0.0000 C   0  0  0  0  0  0           0  0  0
    4.1287   -1.9894    0.0000 C   0  0  0  0  0  0           0  0  0
    4.8412   -1.5769    0.0000 C   0  0  0  0  0  0           0  0  0
    0.5611   -0.7500    0.0000 C   0  0  0  0  0  0           0  0  0
    0.5599   -1.5773    0.0000 C   0  0  0  0  0  0           0  0  0
    1.2747   -1.9902    0.0000 C   0  0  0  0  0  0           0  0  0
    1.9883   -0.7463    0.0000 C   0  0  0  0  0  0           0  0  0
    1.2729   -0.3372    0.0000 C   0  0  0  0  0  0           0  0  0
    3.4083   -0.7500    0.0000 O   0  0  0  0  0  0           0  0  0
    6.2083   -0.6792    0.0000 O   0  0  0  0  0  0           0  0  0
    7.5958   -1.5708    0.0000 C   0  0  0  0  0  0           0  0  0
    5.2125   -3.3583    0.0000 S   0  0  0  0  0  0           0  0  0
    1.2667    0.4917    0.0000 C   0  0  0  0  0  0           0  0  0
    0.5500    0.9042    0.0000 O   0  0  0  0  0  0           0  0  0
    1.9792    0.9083    0.0000 O   0  0  0  0  0  0           0  0  0
   -0.1583   -0.3333    0.0000 O   0  0  0  0  0  0           0  0  0
 15 16  1  0     0  0
  8  1  2  0     0  0
 16 17  1  0     0  0
  3  4  1  0     0  0
 17 18  1  0     0  0
  5  9  2  0     0  0
 18 19  1  0     0  0
 19 14  1  0     0  0
  9  6  1  0     0  0
 10 11  1  0     0  0
 20 21  2  0     0  0
  4  5  1  0     0  0
 21 22  1  0     0  0
 22 15  2  0     0  0
  5  1  1  0     0  0
 15 23  1  0     0  0
  1  2  1  0     0  0
 23 24  2  0     0  0
 24 20  1  0     0  0
 17 25  2  0     0  0
  6  7  2  0     0  0
 13 26  2  0     0  0
 11 12  1  0     0  0
 12 27  2  0     0  0
 27  6  1  0     0  0
 12 13  1  0     0  0
 10 28  2  0     0  0
 13 14  1  0     0  0
 24 29  1  0     0  0
 14 10  1  0     0  0
 29 30  2  0     0  0
  2  3  1  0     0  0
 29 31  1  0     0  0
  7  8  1  0     0  0
 20 32  1  0     0  0
M  END
>  <prID>
786

>  <IDDB>
225300

>  <pIC50_HIV_Integrase>
4.769551079

>  <Q>
0.555426411

>  <Activity_Integrase>
Inactive_Integrase

NA
NA
NA
NA
$$$$

  Accelrys05311914292D 1   1.00000     0.00000     0

 29 31  0     0  0            999 V2000
    9.6901   -2.0612    0.0000 S   0  0  0  0  0  0           0  0  0
   10.3594   -1.5787    0.0000 C   0  0  0  0  0  0           0  0  0
   10.1026   -0.7904    0.0000 C   0  0  0  0  0  0           0  0  0
    9.2776   -0.7904    0.0000 C   0  0  0  0  0  0           0  0  0
    9.0208   -1.5787    0.0000 C   0  0  0  0  0  0           0  0  0
    6.5166   -0.7870    0.0000 C   0  0  0  0  0  0           0  0  0
    7.3416   -0.7870    0.0000 S   0  0  0  0  0  0           0  0  0
    7.5984   -1.5711    0.0000 C   0  0  0  0  0  0           0  0  0
    6.9291   -2.0579    0.0000 C   0  0  0  0  0  0           0  0  0
    6.2641   -1.5711    0.0000 N   0  0  3  0  0  0           0  0  0
    5.5537   -1.9852    0.0000 C   0  0  0  0  0  0           0  0  0
    6.9208   -2.8829    0.0000 O   0  0  0  0  0  0           0  0  0
    8.3083   -1.9912    0.0000 C   0  0  0  0  0  0           0  0  0
    5.9250   -0.2037    0.0000 S   0  0  0  0  0  0           0  0  0
    4.1287   -1.9894    0.0000 C   0  0  0  0  0  0           0  0  0
    4.8412   -1.5769    0.0000 C   0  0  0  0  0  0           0  0  0
    1.9912   -1.5769    0.0000 C   0  0  0  0  0  0           0  0  0
    2.7037   -1.9894    0.0000 N   0  0  0  0  0  0           0  0  0
    3.4162   -1.5769    0.0000 C   0  0  0  0  0  0           0  0  0
    0.5611   -0.7500    0.0000 C   0  0  0  0  0  0           0  0  0
    0.5599   -1.5773    0.0000 C   0  0  0  0  0  0           0  0  0
    1.2747   -1.9902    0.0000 C   0  0  0  0  0  0           0  0  0
    1.9883   -0.7463    0.0000 C   0  0  0  0  0  0           0  0  0
    1.2729   -0.3372    0.0000 C   0  0  0  0  0  0           0  0  0
    3.4083   -0.7500    0.0000 O   0  0  0  0  0  0           0  0  0
    1.2667    0.4917    0.0000 C   0  0  0  0  0  0           0  0  0
    0.5500    0.9042    0.0000 O   0  0  0  0  0  0           0  0  0
    1.9792    0.9083    0.0000 O   0  0  0  0  0  0           0  0  0
   -0.1583   -0.3333    0.0000 O   0  0  0  0  0  0           0  0  0
  6 14  2  0     0  0
  2  3  2  0     0  0
  1  2  1  0     0  0
 15 16  1  0     0  0
 16 11  1  0     0  0
  3  4  1  0     0  0
  7  8  1  0     0  0
 17 18  1  0     0  0
  8  9  1  0     0  0
 18 19  1  0     0  0
 19 15  1  0     0  0
  9 10  1  0     0  0
 10  6  1  0     0  0
 20 21  2  0     0  0
  5  1  1  0     0  0
 21 22  1  0     0  0
 22 17  2  0     0  0
 11 10  1  0     0  0
 17 23  1  0     0  0
  6  7  1  0     0  0
 23 24  2  0     0  0
 24 20  1  0     0  0
  9 12  2  0     0  0
 19 25  2  0     0  0
 24 26  1  0     0  0
  8 13  2  0     0  0
 26 27  2  0     0  0
 13  5  1  0     0  0
 26 28  1  0     0  0
  4  5  2  0     0  0
 20 29  1  0     0  0
M  END
>  <prID>
787

>  <IDDB>
225301

>  <pIC50_HIV_Integrase>
4.455931956

>  <Q>
1.833666449

>  <Activity_Integrase>
Inactive_Integrase

NA
NA
NA
NA
$$$$

  Accelrys05311914292D 1   1.00000     0.00000     0

 31 33  0     0  0            999 V2000
    9.5671   -7.9303    0.0000 C   0  0  0  0  0  0           0  0  0
    9.5675   -7.1065    0.0000 C   0  0  0  0  0  0           0  0  0
    8.1333   -7.1042    0.0000 C   0  0  0  0  0  0           0  0  0
    8.1322   -7.9315    0.0000 C   0  0  0  0  0  0           0  0  0
    8.8470   -8.3444    0.0000 C   0  0  0  0  0  0           0  0  0
    8.8452   -6.6914    0.0000 C   0  0  0  0  0  0           0  0  0
    5.6291   -7.8959    0.0000 C   0  0  0  0  0  0           0  0  0
    6.4541   -7.8959    0.0000 S   0  0  0  0  0  0           0  0  0
    6.7109   -7.1117    0.0000 C   0  0  0  0  0  0           0  0  0
    6.0416   -6.6250    0.0000 C   0  0  0  0  0  0           0  0  0
    5.3766   -7.1117    0.0000 N   0  0  3  0  0  0           0  0  0
    1.8162   -6.6977    0.0000 C   0  0  0  0  0  0           0  0  0
    2.5287   -7.1102    0.0000 N   0  0  0  0  0  0           0  0  0
    3.2412   -6.6977    0.0000 C   0  0  0  0  0  0           0  0  0
    3.9537   -7.1102    0.0000 C   0  0  0  0  0  0           0  0  0
    4.6662   -6.6977    0.0000 C   0  0  0  0  0  0           0  0  0
    0.3861   -5.8708    0.0000 C   0  0  0  0  0  0           0  0  0
    0.3849   -6.6982    0.0000 C   0  0  0  0  0  0           0  0  0
    1.0997   -7.1110    0.0000 C   0  0  0  0  0  0           0  0  0
    1.8133   -5.8672    0.0000 C   0  0  0  0  0  0           0  0  0
    1.0979   -5.4580    0.0000 C   0  0  0  0  0  0           0  0  0
    3.2333   -5.8708    0.0000 O   0  0  0  0  0  0           0  0  0
    6.0333   -5.8000    0.0000 O   0  0  0  0  0  0           0  0  0
    7.4208   -6.6917    0.0000 C   0  0  0  0  0  0           0  0  0
    5.0375   -8.4792    0.0000 S   0  0  0  0  0  0           0  0  0
    1.0917   -4.6292    0.0000 C   0  0  0  0  0  0           0  0  0
    0.3750   -4.2167    0.0000 O   0  0  0  0  0  0           0  0  0
    1.8042   -4.2125    0.0000 O   0  0  0  0  0  0           0  0  0
   -0.3333   -5.4542    0.0000 O   0  0  0  0  0  0           0  0  0
   10.2792   -8.3417    0.0000 C   0  0  0  0  0  0           0  0  0
   10.9917   -7.9250    0.0000 C   0  0  0  0  0  0           0  0  0
 15 16  1  0     0  0
 16 11  1  0     0  0
  4  5  1  0     0  0
  5  1  2  0     0  0
 17 18  2  0     0  0
  2  1  1  0     0  0
 18 19  1  0     0  0
 19 12  2  0     0  0
  8  9  1  0     0  0
 12 20  1  0     0  0
  9 10  1  0     0  0
 20 21  2  0     0  0
 21 17  1  0     0  0
 10 11  1  0     0  0
 14 22  2  0     0  0
 11  7  1  0     0  0
 10 23  2  0     0  0
  2  6  2  0     0  0
  9 24  2  0     0  0
 24  3  1  0     0  0
  6  3  1  0     0  0
  7 25  2  0     0  0
 12 13  1  0     0  0
 21 26  1  0     0  0
  7  8  1  0     0  0
 26 27  2  0     0  0
 13 14  1  0     0  0
 26 28  1  0     0  0
  3  4  2  0     0  0
 17 29  1  0     0  0
 14 15  1  0     0  0
  1 30  1  0     0  0
 30 31  1  0     0  0
M  END
>  <prID>
788

>  <IDDB>
225302

>  <pIC50_HIV_Integrase>
4.958607315

>  <Q>
0.980566256

>  <Activity_Integrase>
Inactive_Integrase

NA
NA
NA
NA
$$$$

  Accelrys05311914292D 1   1.00000     0.00000     0

 28 30  0     0  0            999 V2000
    8.9776   -1.5013    0.0000 S   0  0  0  0  0  0           0  0  0
    9.6469   -1.9838    0.0000 C   0  0  0  0  0  0           0  0  0
    9.3901   -2.7721    0.0000 C   0  0  0  0  0  0           0  0  0
    8.5651   -2.7721    0.0000 C   0  0  0  0  0  0           0  0  0
    8.3083   -1.9838    0.0000 C   0  0  0  0  0  0           0  0  0
    5.8041   -2.7755    0.0000 C   0  0  0  0  0  0           0  0  0
    6.6291   -2.7755    0.0000 S   0  0  0  0  0  0           0  0  0
    6.8859   -1.9914    0.0000 C   0  0  0  0  0  0           0  0  0
    6.2166   -1.5046    0.0000 C   0  0  0  0  0  0           0  0  0
    5.5516   -1.9914    0.0000 N   0  0  3  0  0  0           0  0  0
    4.8412   -1.5773    0.0000 C   0  0  0  0  0  0           0  0  0
    6.2083   -0.6796    0.0000 O   0  0  0  0  0  0           0  0  0
    7.5958   -1.5713    0.0000 C   0  0  0  0  0  0           0  0  0
    5.2125   -3.3588    0.0000 S   0  0  0  0  0  0           0  0  0
    4.1287   -1.9856    0.0000 C   0  0  0  0  0  0           0  0  0
    1.9912   -1.5769    0.0000 C   0  0  0  0  0  0           0  0  0
    2.7037   -1.9894    0.0000 N   0  0  0  0  0  0           0  0  0
    3.4162   -1.5769    0.0000 C   0  0  0  0  0  0           0  0  0
    0.5611   -0.7500    0.0000 C   0  0  0  0  0  0           0  0  0
    0.5599   -1.5773    0.0000 C   0  0  0  0  0  0           0  0  0
    1.2747   -1.9902    0.0000 C   0  0  0  0  0  0           0  0  0
    1.9883   -0.7463    0.0000 C   0  0  0  0  0  0           0  0  0
    1.2729   -0.3372    0.0000 C   0  0  0  0  0  0           0  0  0
    3.4083   -0.7500    0.0000 O   0  0  0  0  0  0           0  0  0
    1.2667    0.4917    0.0000 C   0  0  0  0  0  0           0  0  0
    0.5500    0.9042    0.0000 O   0  0  0  0  0  0           0  0  0
    1.9792    0.9083    0.0000 O   0  0  0  0  0  0           0  0  0
   -0.1583   -0.3333    0.0000 O   0  0  0  0  0  0           0  0  0
  4  5  2  0     0  0
  6 14  2  0     0  0
  2  3  2  0     0  0
 15 11  1  0     0  0
  1  2  1  0     0  0
  3  4  1  0     0  0
 16 17  1  0     0  0
  7  8  1  0     0  0
 17 18  1  0     0  0
 18 15  1  0     0  0
  8  9  1  0     0  0
  9 10  1  0     0  0
 19 20  2  0     0  0
 10  6  1  0     0  0
 20 21  1  0     0  0
 21 16  2  0     0  0
  5  1  1  0     0  0
 16 22  1  0     0  0
 11 10  1  0     0  0
 22 23  2  0     0  0
 23 19  1  0     0  0
  6  7  1  0     0  0
 18 24  2  0     0  0
  9 12  2  0     0  0
 23 25  1  0     0  0
 25 26  2  0     0  0
  8 13  2  0     0  0
 25 27  1  0     0  0
 13  5  1  0     0  0
 19 28  1  0     0  0
M  END
>  <prID>
789

>  <IDDB>
225303

>  <pIC50_HIV_Integrase>
4.420216403

>  <Q>
2.088936256

>  <Activity_Integrase>
Inactive_Integrase

NA
NA
NA
NA
$$$$

  Accelrys05311914292D 1   1.00000     0.00000     0

 32 34  0     0  0            999 V2000
    9.7333   -1.9838    0.0000 C   0  0  0  0  0  0           0  0  0
    9.7322   -2.8112    0.0000 C   0  0  0  0  0  0           0  0  0
   10.4470   -3.2240    0.0000 C   0  0  0  0  0  0           0  0  0
   11.1634   -2.8107    0.0000 C   0  0  0  0  0  0           0  0  0
   11.1606   -1.9802    0.0000 C   0  0  0  0  0  0           0  0  0
   10.4452   -1.5710    0.0000 C   0  0  0  0  0  0           0  0  0
    8.3083   -1.9838    0.0000 C   0  0  0  0  0  0           0  0  0
    9.0208   -1.5713    0.0000 C   0  0  0  0  0  0           0  0  0
    5.8041   -2.7755    0.0000 C   0  0  0  0  0  0           0  0  0
    6.6291   -2.7755    0.0000 S   0  0  0  0  0  0           0  0  0
    6.8859   -1.9914    0.0000 C   0  0  0  0  0  0           0  0  0
    6.2166   -1.5046    0.0000 C   0  0  0  0  0  0           0  0  0
    5.5516   -1.9914    0.0000 N   0  0  3  0  0  0           0  0  0
    4.8412   -1.5773    0.0000 C   0  0  0  0  0  0           0  0  0
    6.2083   -0.6796    0.0000 O   0  0  0  0  0  0           0  0  0
    7.5958   -1.5713    0.0000 C   0  0  0  0  0  0           0  0  0
    5.2125   -3.3588    0.0000 S   0  0  0  0  0  0           0  0  0
    4.1287   -1.9856    0.0000 C   0  0  0  0  0  0           0  0  0
    1.9912   -1.5769    0.0000 C   0  0  0  0  0  0           0  0  0
    2.7037   -1.9894    0.0000 N   0  0  0  0  0  0           0  0  0
    3.4162   -1.5769    0.0000 C   0  0  0  0  0  0           0  0  0
    0.5611   -0.7500    0.0000 C   0  0  0  0  0  0           0  0  0
    0.5599   -1.5773    0.0000 C   0  0  0  0  0  0           0  0  0
    1.2747   -1.9902    0.0000 C   0  0  0  0  0  0           0  0  0
    1.9883   -0.7463    0.0000 C   0  0  0  0  0  0           0  0  0
    1.2729   -0.3372    0.0000 C   0  0  0  0  0  0           0  0  0
    3.4083   -0.7500    0.0000 O   0  0  0  0  0  0           0  0  0
    1.2667    0.4917    0.0000 C   0  0  0  0  0  0           0  0  0
    0.5500    0.9042    0.0000 O   0  0  0  0  0  0           0  0  0
    1.9792    0.9083    0.0000 O   0  0  0  0  0  0           0  0  0
   -0.1583   -0.3333    0.0000 O   0  0  0  0  0  0           0  0  0
    8.3042   -2.8083    0.0000 C   0  0  0  0  0  0           0  0  0
 11 16  2  0     0  0
 16  7  1  0     0  0
  8  1  1  0     0  0
  9 17  2  0     0  0
  9 10  1  0     0  0
 18 14  1  0     0  0
  4  5  1  0     0  0
 19 20  1  0     0  0
  2  3  1  0     0  0
 20 21  1  0     0  0
 21 18  1  0     0  0
  5  6  2  0     0  0
  6  1  1  0     0  0
 22 23  2  0     0  0
 10 11  1  0     0  0
 23 24  1  0     0  0
 24 19  2  0     0  0
 11 12  1  0     0  0
 19 25  1  0     0  0
 12 13  1  0     0  0
 25 26  2  0     0  0
 26 22  1  0     0  0
 13  9  1  0     0  0
 21 27  2  0     0  0
  1  2  2  0     0  0
 26 28  1  0     0  0
 14 13  1  0     0  0
 28 29  2  0     0  0
  3  4  2  0     0  0
 28 30  1  0     0  0
 12 15  2  0     0  0
 22 31  1  0     0  0
  7  8  2  0     0  0
  7 32  1  0     0  0
M  END
>  <prID>
790

>  <IDDB>
225304

>  <pIC50_HIV_Integrase>
4.638272164

>  <Q>
1.546451451

>  <Activity_Integrase>
Inactive_Integrase

NA
NA
NA
NA
$$$$

  Accelrys05311914302D 1   1.00000     0.00000     0

 29 31  0     0  0            999 V2000
   10.3443   -4.6112    0.0000 S   0  0  0  0  0  0           0  0  0
   11.0136   -4.1287    0.0000 C   0  0  0  0  0  0           0  0  0
   10.7568   -3.3404    0.0000 C   0  0  0  0  0  0           0  0  0
    9.9318   -3.3404    0.0000 C   0  0  0  0  0  0           0  0  0
    9.6750   -4.1287    0.0000 C   0  0  0  0  0  0           0  0  0
    7.1708   -3.3370    0.0000 C   0  0  0  0  0  0           0  0  0
    7.9958   -3.3370    0.0000 S   0  0  0  0  0  0           0  0  0
    8.2526   -4.1211    0.0000 C   0  0  0  0  0  0           0  0  0
    7.5833   -4.6079    0.0000 C   0  0  0  0  0  0           0  0  0
    6.9183   -4.1211    0.0000 N   0  0  3  0  0  0           0  0  0
    6.2078   -4.5352    0.0000 C   0  0  0  0  0  0           0  0  0
    7.5750   -5.4329    0.0000 O   0  0  0  0  0  0           0  0  0
    8.9625   -4.5412    0.0000 C   0  0  0  0  0  0           0  0  0
    6.5792   -2.7537    0.0000 S   0  0  0  0  0  0           0  0  0
    4.7828   -4.5394    0.0000 C   0  0  0  0  0  0           0  0  0
    5.4953   -4.1269    0.0000 C   0  0  0  0  0  0           0  0  0
    2.6453   -4.1269    0.0000 C   0  0  0  0  0  0           0  0  0
    3.3578   -4.5394    0.0000 N   0  0  0  0  0  0           0  0  0
    4.0703   -4.1269    0.0000 C   0  0  0  0  0  0           0  0  0
    1.2152   -3.3000    0.0000 C   0  0  0  0  0  0           0  0  0
    1.2141   -4.1273    0.0000 C   0  0  0  0  0  0           0  0  0
    1.9289   -4.5402    0.0000 C   0  0  0  0  0  0           0  0  0
    2.6425   -3.2963    0.0000 C   0  0  0  0  0  0           0  0  0
    1.9271   -2.8872    0.0000 C   0  0  0  0  0  0           0  0  0
    4.0625   -3.3000    0.0000 O   0  0  0  0  0  0           0  0  0
    1.9208   -2.0583    0.0000 O   0  0  0  0  0  0           0  0  0
    0.4958   -2.8833    0.0000 C   0  0  0  0  0  0           0  0  0
   -0.2208   -3.2917    0.0000 O   0  0  0  0  0  0           0  0  0
    0.4917   -2.0583    0.0000 O   0  0  0  0  0  0           0  0  0
  6 14  2  0     0  0
  2  3  2  0     0  0
  1  2  1  0     0  0
 15 16  1  0     0  0
 16 11  1  0     0  0
  3  4  1  0     0  0
  7  8  1  0     0  0
 17 18  1  0     0  0
  8  9  1  0     0  0
 18 19  1  0     0  0
 19 15  1  0     0  0
  9 10  1  0     0  0
 10  6  1  0     0  0
 20 21  2  0     0  0
  5  1  1  0     0  0
 21 22  1  0     0  0
 22 17  2  0     0  0
 11 10  1  0     0  0
 17 23  1  0     0  0
  6  7  1  0     0  0
 23 24  2  0     0  0
 24 20  1  0     0  0
  9 12  2  0     0  0
 19 25  2  0     0  0
 24 26  1  0     0  0
  8 13  2  0     0  0
 20 27  1  0     0  0
 13  5  1  0     0  0
 27 28  1  0     0  0
  4  5  2  0     0  0
 27 29  2  0     0  0
M  END
>  <prID>
791

>  <IDDB>
225305

>  <pIC50_HIV_Integrase>
4.602059991

>  <Q>
1.82856479

>  <Activity_Integrase>
Inactive_Integrase

NA
NA
NA
NA
$$$$

  Accelrys05311914302D 1   1.00000     0.00000     0

 32 35  0     0  0            999 V2000
    1.3495   -5.1060    0.0000 C   0  0  0  0  0  0           0  0  0
    2.0620   -5.5185    0.0000 N   0  0  0  0  0  0           0  0  0
   -0.0806   -4.2791    0.0000 C   0  0  0  0  0  0           0  0  0
   -0.0818   -5.1065    0.0000 C   0  0  0  0  0  0           0  0  0
    0.6331   -5.5194    0.0000 C   0  0  0  0  0  0           0  0  0
    1.3466   -4.2755    0.0000 C   0  0  0  0  0  0           0  0  0
    0.6313   -3.8664    0.0000 C   0  0  0  0  0  0           0  0  0
    0.6250   -3.0375    0.0000 O   0  0  0  0  0  0           0  0  0
   -0.8000   -3.8625    0.0000 C   0  0  0  0  0  0           0  0  0
   -1.5167   -4.2708    0.0000 O   0  0  0  0  0  0           0  0  0
   -0.8042   -3.0375    0.0000 O   0  0  0  0  0  0           0  0  0
    9.1004   -6.3386    0.0000 C   0  0  0  0  0  0           0  0  0
    9.8856   -6.5919    0.0000 O   0  0  0  0  0  0           0  0  0
   10.3707   -5.9245    0.0000 C   0  0  0  0  0  0           0  0  0
    9.8832   -5.2558    0.0000 O   0  0  0  0  0  0           0  0  0
    9.1008   -5.5148    0.0000 C   0  0  0  0  0  0           0  0  0
    7.6667   -5.5125    0.0000 C   0  0  0  0  0  0           0  0  0
    7.6655   -6.3399    0.0000 C   0  0  0  0  0  0           0  0  0
    8.3803   -6.7527    0.0000 C   0  0  0  0  0  0           0  0  0
    8.3785   -5.0997    0.0000 C   0  0  0  0  0  0           0  0  0
    5.1625   -6.3042    0.0000 C   0  0  0  0  0  0           0  0  0
    5.9875   -6.3042    0.0000 S   0  0  0  0  0  0           0  0  0
    6.2443   -5.5201    0.0000 C   0  0  0  0  0  0           0  0  0
    5.5750   -5.0333    0.0000 C   0  0  0  0  0  0           0  0  0
    4.9099   -5.5201    0.0000 N   0  0  3  0  0  0           0  0  0
    2.7745   -5.1060    0.0000 C   0  0  0  0  0  0           0  0  0
    3.4870   -5.5185    0.0000 C   0  0  0  0  0  0           0  0  0
    4.1995   -5.1060    0.0000 C   0  0  0  0  0  0           0  0  0
    2.7667   -4.2792    0.0000 O   0  0  0  0  0  0           0  0  0
    5.5667   -4.2083    0.0000 O   0  0  0  0  0  0           0  0  0
    6.9542   -5.1000    0.0000 C   0  0  0  0  0  0           0  0  0
    4.5708   -6.8875    0.0000 S   0  0  0  0  0  0           0  0  0
 16 12  1  0     0  0
  7  8  1  0     0  0
  4  5  1  0     0  0
 17 18  2  0     0  0
  3  9  1  0     0  0
 18 19  1  0     0  0
 19 12  2  0     0  0
  5  1  2  0     0  0
 16 20  2  0     0  0
 20 17  1  0     0  0
 21 22  1  0     0  0
  9 10  1  0     0  0
  1  2  1  0     0  0
  9 11  2  0     0  0
 12 13  1  0     0  0
  1  6  1  0     0  0
 22 23  1  0     0  0
 23 24  1  0     0  0
 24 25  1  0     0  0
 25 21  1  0     0  0
  3  4  2  0     0  0
  2 26  1  0     0  0
  6  7  2  0     0  0
 26 27  1  0     0  0
  7  3  1  0     0  0
 27 28  1  0     0  0
 28 25  1  0     0  0
 26 29  2  0     0  0
 13 14  1  0     0  0
 24 30  2  0     0  0
 14 15  1  0     0  0
 23 31  2  0     0  0
 31 17  1  0     0  0
 15 16  1  0     0  0
 21 32  2  0     0  0
M  END
>  <prID>
792

>  <IDDB>
225306

>  <pIC50_HIV_Integrase>
4.638272164

>  <Q>
0.550324799

>  <Activity_Integrase>
Inactive_Integrase

NA
NA
NA
NA
$$$$

  Accelrys05311914302D 1   1.00000     0.00000     0

 33 35  0     0  0            999 V2000
    1.3495   -5.1060    0.0000 C   0  0  0  0  0  0           0  0  0
    2.0620   -5.5185    0.0000 N   0  0  0  0  0  0           0  0  0
   -0.0806   -4.2791    0.0000 C   0  0  0  0  0  0           0  0  0
   -0.0818   -5.1065    0.0000 C   0  0  0  0  0  0           0  0  0
    0.6331   -5.5194    0.0000 C   0  0  0  0  0  0           0  0  0
    1.3466   -4.2755    0.0000 C   0  0  0  0  0  0           0  0  0
    0.6313   -3.8664    0.0000 C   0  0  0  0  0  0           0  0  0
    0.6250   -3.0375    0.0000 O   0  0  0  0  0  0           0  0  0
   -0.8000   -3.8625    0.0000 C   0  0  0  0  0  0           0  0  0
   -1.5167   -4.2708    0.0000 O   0  0  0  0  0  0           0  0  0
   -0.8042   -3.0375    0.0000 O   0  0  0  0  0  0           0  0  0
    9.1004   -6.3386    0.0000 C   0  0  0  0  0  0           0  0  0
    9.9231   -6.7752    0.0000 O   0  0  0  0  0  0           0  0  0
    9.8624   -5.0891    0.0000 O   0  0  0  0  0  0           0  0  0
    9.1008   -5.5148    0.0000 C   0  0  0  0  0  0           0  0  0
    7.6667   -5.5125    0.0000 C   0  0  0  0  0  0           0  0  0
    7.6655   -6.3399    0.0000 C   0  0  0  0  0  0           0  0  0
    8.3803   -6.7527    0.0000 C   0  0  0  0  0  0           0  0  0
    8.3785   -5.0997    0.0000 C   0  0  0  0  0  0           0  0  0
    5.1625   -6.3042    0.0000 C   0  0  0  0  0  0           0  0  0
    5.9875   -6.3042    0.0000 S   0  0  0  0  0  0           0  0  0
    6.2443   -5.5201    0.0000 C   0  0  0  0  0  0           0  0  0
    5.5750   -5.0333    0.0000 C   0  0  0  0  0  0           0  0  0
    4.9099   -5.5201    0.0000 N   0  0  3  0  0  0           0  0  0
    2.7745   -5.1060    0.0000 C   0  0  0  0  0  0           0  0  0
    3.4870   -5.5185    0.0000 C   0  0  0  0  0  0           0  0  0
    4.1995   -5.1060    0.0000 C   0  0  0  0  0  0           0  0  0
    2.7667   -4.2792    0.0000 O   0  0  0  0  0  0           0  0  0
    5.5667   -4.2083    0.0000 O   0  0  0  0  0  0           0  0  0
    6.9542   -5.1000    0.0000 C   0  0  0  0  0  0           0  0  0
    4.5708   -6.8875    0.0000 S   0  0  0  0  0  0           0  0  0
   10.6417   -6.4000    0.0000 C   0  0  0  0  0  0           0  0  0
   10.6417   -5.5250    0.0000 C   0  0  0  0  0  0           0  0  0
  4  5  1  0     0  0
 17 18  1  0     0  0
 18 12  2  0     0  0
  3  9  1  0     0  0
 15 19  2  0     0  0
 19 16  1  0     0  0
 20 21  1  0     0  0
  5  1  2  0     0  0
  9 10  1  0     0  0
  1  2  1  0     0  0
  9 11  2  0     0  0
 12 13  1  0     0  0
 21 22  1  0     0  0
 22 23  1  0     0  0
 23 24  1  0     0  0
 24 20  1  0     0  0
  1  6  1  0     0  0
  2 25  1  0     0  0
  3  4  2  0     0  0
 25 26  1  0     0  0
  6  7  2  0     0  0
 26 27  1  0     0  0
 27 24  1  0     0  0
  7  3  1  0     0  0
 25 28  2  0     0  0
 14 15  1  0     0  0
 23 29  2  0     0  0
 15 12  1  0     0  0
 22 30  2  0     0  0
 30 16  1  0     0  0
 20 31  2  0     0  0
  7  8  1  0     0  0
 13 32  1  0     0  0
 16 17  2  0     0  0
 14 33  1  0     0  0
M  END
>  <prID>
793

>  <IDDB>
225307

>  <pIC50_HIV_Integrase>
4.769551079

>  <Q>
0.947543606

>  <Activity_Integrase>
Inactive_Integrase

NA
NA
NA
NA
$$$$

  Accelrys05311914302D 1   1.00000     0.00000     0

 34 36  0     0  0            999 V2000
    0.1111   -2.9375    0.0000 C   0  0  0  0  0  0           0  0  0
   -0.6043   -2.5187    0.0000 C   0  0  0  0  0  0           0  0  0
   -1.3254   -2.9234    0.0000 O   0  0  0  0  0  0           0  0  0
   -0.5977   -1.6934    0.0000 O   0  0  0  0  0  0           0  0  0
    7.8583   -4.1708    0.0000 C   0  0  0  0  0  0           0  0  0
    7.8572   -4.9982    0.0000 C   0  0  0  0  0  0           0  0  0
    8.5720   -5.4111    0.0000 C   0  0  0  0  0  0           0  0  0
    9.2884   -4.9977    0.0000 C   0  0  0  0  0  0           0  0  0
    9.2856   -4.1672    0.0000 C   0  0  0  0  0  0           0  0  0
    8.5702   -3.7581    0.0000 C   0  0  0  0  0  0           0  0  0
    5.3541   -4.9625    0.0000 C   0  0  0  0  0  0           0  0  0
    6.1791   -4.9625    0.0000 S   0  0  0  0  0  0           0  0  0
    6.4359   -4.1784    0.0000 C   0  0  0  0  0  0           0  0  0
    5.7666   -3.6917    0.0000 C   0  0  0  0  0  0           0  0  0
    5.1016   -4.1784    0.0000 N   0  0  3  0  0  0           0  0  0
    1.5412   -3.7644    0.0000 C   0  0  0  0  0  0           0  0  0
    2.2537   -4.1769    0.0000 N   0  0  0  0  0  0           0  0  0
    2.9662   -3.7644    0.0000 C   0  0  0  0  0  0           0  0  0
    3.6787   -4.1769    0.0000 C   0  0  0  0  0  0           0  0  0
    4.3912   -3.7644    0.0000 C   0  0  0  0  0  0           0  0  0
    0.1099   -3.7648    0.0000 C   0  0  0  0  0  0           0  0  0
    0.8247   -4.1777    0.0000 C   0  0  0  0  0  0           0  0  0
    1.5383   -2.9338    0.0000 C   0  0  0  0  0  0           0  0  0
    0.8229   -2.5247    0.0000 C   0  0  0  0  0  0           0  0  0
    2.9583   -2.9375    0.0000 O   0  0  0  0  0  0           0  0  0
    5.7583   -2.8667    0.0000 O   0  0  0  0  0  0           0  0  0
    7.1458   -3.7583    0.0000 C   0  0  0  0  0  0           0  0  0
    4.7625   -5.5458    0.0000 S   0  0  0  0  0  0           0  0  0
   10.0000   -5.4083    0.0000 O   0  0  0  0  0  0           0  0  0
   10.7125   -4.9917    0.0000 C   0  0  0  0  0  0           0  0  0
    9.9958   -3.7500    0.0000 O   0  0  0  0  0  0           0  0  0
   10.7083   -4.1625    0.0000 C   0  0  0  0  0  0           0  0  0
    8.5667   -6.2333    0.0000 O   0  0  0  0  0  0           0  0  0
    9.2792   -6.6458    0.0000 C   0  0  0  0  0  0           0  0  0
 17 18  1  0     0  0
  9 10  2  0     0  0
 18 19  1  0     0  0
 10  5  1  0     0  0
 19 20  1  0     0  0
 20 15  1  0     0  0
 11 12  1  0     0  0
  1 21  2  0     0  0
  5  6  2  0     0  0
 21 22  1  0     0  0
 22 16  2  0     0  0
  1  2  1  0     0  0
 16 23  1  0     0  0
  6  7  1  0     0  0
 23 24  2  0     0  0
 24  1  1  0     0  0
  2  4  2  0     0  0
 18 25  2  0     0  0
  7  8  2  0     0  0
 14 26  2  0     0  0
 12 13  1  0     0  0
 13 27  2  0     0  0
 27  5  1  0     0  0
 13 14  1  0     0  0
 11 28  2  0     0  0
 14 15  1  0     0  0
  8 29  1  0     0  0
 15 11  1  0     0  0
 29 30  1  0     0  0
  9 31  1  0     0  0
  8  9  1  0     0  0
 31 32  1  0     0  0
 16 17  1  0     0  0
  7 33  1  0     0  0
  2  3  1  0     0  0
 33 34  1  0     0  0
M  END
>  <prID>
794

>  <IDDB>
225311

>  <pIC50_HIV_Integrase>
4.070581074

>  <Q>
1.57398747

>  <Activity_Integrase>
Inactive_Integrase

NA
NA
NA
NA
$$$$

  Accelrys05311914302D 1   1.00000     0.00000     0

 27 29  0     0  0            999 V2000
    8.3442   -1.9049    0.0000 S   0  0  0  0  0  0           0  0  0
    7.6708   -2.3917    0.0000 C   0  0  0  0  0  0           0  0  0
    7.9275   -3.1800    0.0000 C   0  0  0  0  0  0           0  0  0
    8.7567   -3.1800    0.0000 C   0  0  0  0  0  0           0  0  0
    9.0135   -2.3917    0.0000 C   0  0  0  0  0  0           0  0  0
   -0.0764   -1.1583    0.0000 C   0  0  0  0  0  0           0  0  0
   -0.7918   -0.7396    0.0000 C   0  0  0  0  0  0           0  0  0
   -1.5129   -1.1443    0.0000 O   0  0  0  0  0  0           0  0  0
   -0.7852    0.0858    0.0000 O   0  0  0  0  0  0           0  0  0
    5.1666   -3.1834    0.0000 C   0  0  0  0  0  0           0  0  0
    5.9916   -3.1834    0.0000 S   0  0  0  0  0  0           0  0  0
    6.2484   -2.3992    0.0000 C   0  0  0  0  0  0           0  0  0
    5.5791   -1.9125    0.0000 C   0  0  0  0  0  0           0  0  0
    4.9141   -2.3992    0.0000 N   0  0  3  0  0  0           0  0  0
    1.3537   -1.9852    0.0000 C   0  0  0  0  0  0           0  0  0
    2.0662   -2.3977    0.0000 N   0  0  0  0  0  0           0  0  0
    2.7787   -1.9852    0.0000 C   0  0  0  0  0  0           0  0  0
    3.4912   -2.3977    0.0000 C   0  0  0  0  0  0           0  0  0
    4.2037   -1.9852    0.0000 C   0  0  0  0  0  0           0  0  0
   -0.0776   -1.9857    0.0000 C   0  0  0  0  0  0           0  0  0
    0.6372   -2.3985    0.0000 C   0  0  0  0  0  0           0  0  0
    1.3508   -1.1547    0.0000 C   0  0  0  0  0  0           0  0  0
    0.6354   -0.7455    0.0000 C   0  0  0  0  0  0           0  0  0
    2.7708   -1.1583    0.0000 O   0  0  0  0  0  0           0  0  0
    5.5708   -1.0875    0.0000 O   0  0  0  0  0  0           0  0  0
    6.9583   -1.9792    0.0000 C   0  0  0  0  0  0           0  0  0
    4.5750   -3.7667    0.0000 S   0  0  0  0  0  0           0  0  0
 14 10  1  0     0  0
  1  2  1  0     0  0
  7  8  1  0     0  0
 15 16  1  0     0  0
  3  4  1  0     0  0
 16 17  1  0     0  0
  7  9  2  0     0  0
 17 18  1  0     0  0
 10 11  1  0     0  0
 18 19  1  0     0  0
 19 14  1  0     0  0
  4  5  2  0     0  0
  6 20  2  0     0  0
  5  1  1  0     0  0
 20 21  1  0     0  0
 21 15  2  0     0  0
  2  3  2  0     0  0
 15 22  1  0     0  0
 22 23  2  0     0  0
 23  6  1  0     0  0
  6  7  1  0     0  0
 17 24  2  0     0  0
 11 12  1  0     0  0
 13 25  2  0     0  0
 12 13  1  0     0  0
 12 26  2  0     0  0
 26  2  1  0     0  0
 13 14  1  0     0  0
 10 27  2  0     0  0
M  END
>  <prID>
795

>  <IDDB>
225312

>  <pIC50_HIV_Integrase>
4.065501549

>  <Q>
2.94352808

>  <Activity_Integrase>
Inactive_Integrase

NA
NA
NA
NA
$$$$

  Accelrys05311914302D 1   1.00000     0.00000     0

 28 30  0     0  0            999 V2000
    7.3875   -6.5750    0.0000 C   0  0  0  0  0  0           0  0  0
    7.3863   -7.4024    0.0000 C   0  0  0  0  0  0           0  0  0
    8.1012   -7.8152    0.0000 C   0  0  0  0  0  0           0  0  0
    8.8176   -7.4019    0.0000 C   0  0  0  0  0  0           0  0  0
    8.8147   -6.5714    0.0000 C   0  0  0  0  0  0           0  0  0
    8.0993   -6.1622    0.0000 C   0  0  0  0  0  0           0  0  0
    4.8833   -7.3667    0.0000 C   0  0  0  0  0  0           0  0  0
    5.7083   -7.3667    0.0000 S   0  0  0  0  0  0           0  0  0
    5.9651   -6.5826    0.0000 C   0  0  0  0  0  0           0  0  0
    5.2958   -6.0958    0.0000 C   0  0  0  0  0  0           0  0  0
    4.6308   -6.5826    0.0000 N   0  0  3  0  0  0           0  0  0
    1.0703   -6.1685    0.0000 C   0  0  0  0  0  0           0  0  0
    1.7828   -6.5810    0.0000 N   0  0  0  0  0  0           0  0  0
    2.4953   -6.1685    0.0000 C   0  0  0  0  0  0           0  0  0
    3.2078   -6.5810    0.0000 C   0  0  0  0  0  0           0  0  0
    3.9203   -6.1685    0.0000 C   0  0  0  0  0  0           0  0  0
   -0.3598   -5.3416    0.0000 C   0  0  0  0  0  0           0  0  0
   -0.3609   -6.1690    0.0000 C   0  0  0  0  0  0           0  0  0
    0.3539   -6.5819    0.0000 C   0  0  0  0  0  0           0  0  0
    1.0675   -5.3380    0.0000 C   0  0  0  0  0  0           0  0  0
    0.3521   -4.9289    0.0000 C   0  0  0  0  0  0           0  0  0
    2.4875   -5.3417    0.0000 O   0  0  0  0  0  0           0  0  0
    5.2875   -5.2708    0.0000 O   0  0  0  0  0  0           0  0  0
    6.6750   -6.1625    0.0000 C   0  0  0  0  0  0           0  0  0
    4.2917   -7.9500    0.0000 S   0  0  0  0  0  0           0  0  0
   -1.0792   -4.9250    0.0000 O   0  0  0  0  0  0           0  0  0
    6.6667   -7.8083    0.0000 O   0  0  0  0  0  0           0  0  0
    6.6625   -8.6333    0.0000 C   0  0  0  0  0  0           0  0  0
  1  2  2  0     0  0
 14 15  1  0     0  0
  3  4  2  0     0  0
 15 16  1  0     0  0
 16 11  1  0     0  0
  4  5  1  0     0  0
 17 18  2  0     0  0
  2  3  1  0     0  0
 18 19  1  0     0  0
 19 12  2  0     0  0
  8  9  1  0     0  0
 12 20  1  0     0  0
  9 10  1  0     0  0
 20 21  2  0     0  0
 21 17  1  0     0  0
 10 11  1  0     0  0
 14 22  2  0     0  0
 11  7  1  0     0  0
 10 23  2  0     0  0
  5  6  2  0     0  0
  9 24  2  0     0  0
 24  1  1  0     0  0
  6  1  1  0     0  0
  7 25  2  0     0  0
 12 13  1  0     0  0
 17 26  1  0     0  0
  7  8  1  0     0  0
  2 27  1  0     0  0
 13 14  1  0     0  0
 27 28  1  0     0  0
M  END
>  <prID>
796

>  <IDDB>
225318

>  <pIC50_HIV_Integrase>
4

>  <Q>
2.115733272

>  <Activity_Integrase>
Inactive_Integrase

NA
NA
NA
NA
$$$$

  Accelrys05311914302D 1   1.00000     0.00000     0

 30 32  0     0  0            999 V2000
    7.3875   -6.5750    0.0000 C   0  0  0  0  0  0           0  0  0
    7.3863   -7.4024    0.0000 C   0  0  0  0  0  0           0  0  0
    8.1012   -7.8152    0.0000 C   0  0  0  0  0  0           0  0  0
    8.8176   -7.4019    0.0000 C   0  0  0  0  0  0           0  0  0
    8.8147   -6.5714    0.0000 C   0  0  0  0  0  0           0  0  0
    8.0993   -6.1622    0.0000 C   0  0  0  0  0  0           0  0  0
    4.8833   -7.3667    0.0000 C   0  0  0  0  0  0           0  0  0
    5.7083   -7.3667    0.0000 S   0  0  0  0  0  0           0  0  0
    5.9651   -6.5826    0.0000 C   0  0  0  0  0  0           0  0  0
    5.2958   -6.0958    0.0000 C   0  0  0  0  0  0           0  0  0
    4.6308   -6.5826    0.0000 N   0  0  3  0  0  0           0  0  0
    1.0703   -6.1685    0.0000 C   0  0  0  0  0  0           0  0  0
    1.7828   -6.5810    0.0000 N   0  0  0  0  0  0           0  0  0
    2.4953   -6.1685    0.0000 C   0  0  0  0  0  0           0  0  0
    3.2078   -6.5810    0.0000 C   0  0  0  0  0  0           0  0  0
    3.9203   -6.1685    0.0000 C   0  0  0  0  0  0           0  0  0
   -0.3598   -5.3416    0.0000 C   0  0  0  0  0  0           0  0  0
   -0.3609   -6.1690    0.0000 C   0  0  0  0  0  0           0  0  0
    0.3539   -6.5819    0.0000 C   0  0  0  0  0  0           0  0  0
    1.0675   -5.3380    0.0000 C   0  0  0  0  0  0           0  0  0
    0.3521   -4.9289    0.0000 C   0  0  0  0  0  0           0  0  0
    2.4875   -5.3417    0.0000 O   0  0  0  0  0  0           0  0  0
    5.2875   -5.2708    0.0000 O   0  0  0  0  0  0           0  0  0
    6.6750   -6.1625    0.0000 C   0  0  0  0  0  0           0  0  0
    4.2917   -7.9500    0.0000 S   0  0  0  0  0  0           0  0  0
    0.3458   -4.1000    0.0000 O   0  0  0  0  0  0           0  0  0
    9.5292   -7.8125    0.0000 O   0  0  0  0  0  0           0  0  0
   10.2417   -7.3958    0.0000 C   0  0  0  0  0  0           0  0  0
    9.5250   -6.1542    0.0000 O   0  0  0  0  0  0           0  0  0
   10.2375   -6.5667    0.0000 C   0  0  0  0  0  0           0  0  0
  3  4  2  0     0  0
 15 16  1  0     0  0
 16 11  1  0     0  0
  4  5  1  0     0  0
 17 18  2  0     0  0
  2  3  1  0     0  0
 18 19  1  0     0  0
 19 12  2  0     0  0
  8  9  1  0     0  0
 12 20  1  0     0  0
  9 10  1  0     0  0
 20 21  2  0     0  0
 21 17  1  0     0  0
 10 11  1  0     0  0
 14 22  2  0     0  0
 11  7  1  0     0  0
 10 23  2  0     0  0
  5  6  2  0     0  0
  9 24  2  0     0  0
 24  1  1  0     0  0
  6  1  1  0     0  0
  7 25  2  0     0  0
 12 13  1  0     0  0
 21 26  1  0     0  0
  7  8  1  0     0  0
  4 27  1  0     0  0
 13 14  1  0     0  0
 27 28  1  0     0  0
  1  2  2  0     0  0
  5 29  1  0     0  0
 14 15  1  0     0  0
 29 30  1  0     0  0
M  END
>  <prID>
797

>  <IDDB>
225320

>  <pIC50_HIV_Integrase>
4.045757491

>  <Q>
1.884032412

>  <Activity_Integrase>
Inactive_Integrase

NA
NA
NA
NA
$$$$

  Accelrys05311914302D 1   1.00000     0.00000     0

 29 31  0     0  0            999 V2000
    0.0474   -0.4232    0.0000 C   0  0  0  0  0  0           0  0  0
   -0.8004   -0.8742    0.0000 N   0  3  0  0  0  0           0  0  0
   -0.8136   -1.8119    0.0000 O   0  5  0  0  0  0           0  0  0
   -1.4358   -0.3479    0.0000 O   0  0  0  0  0  0           0  0  0
    7.0861   -0.4246    0.0000 C   0  0  0  0  0  0           0  0  0
    7.0849    0.4028    0.0000 C   0  0  0  0  0  0           0  0  0
    7.7997    0.8157    0.0000 C   0  0  0  0  0  0           0  0  0
    8.5162    0.4023    0.0000 C   0  0  0  0  0  0           0  0  0
    8.5133   -0.4282    0.0000 C   0  0  0  0  0  0           0  0  0
    7.7979   -0.8373    0.0000 C   0  0  0  0  0  0           0  0  0
    4.5791    0.3630    0.0000 C   0  0  0  0  0  0           0  0  0
    5.4041    0.3630    0.0000 S   0  0  0  0  0  0           0  0  0
    5.6609   -0.4211    0.0000 C   0  0  0  0  0  0           0  0  0
    4.9916   -0.9079    0.0000 C   0  0  0  0  0  0           0  0  0
    4.3266   -0.4211    0.0000 N   0  0  3  0  0  0           0  0  0
    3.6162   -0.8352    0.0000 C   0  0  0  0  0  0           0  0  0
    4.9833   -1.7329    0.0000 O   0  0  0  0  0  0           0  0  0
    6.3708   -0.8412    0.0000 C   0  0  0  0  0  0           0  0  0
    3.9875    0.9463    0.0000 S   0  0  0  0  0  0           0  0  0
    0.7604    0.8170    0.0000 C   0  0  0  0  0  0           0  0  0
    0.0486    0.4042    0.0000 C   0  0  0  0  0  0           0  0  0
    1.4787   -0.4227    0.0000 C   0  0  0  0  0  0           0  0  0
    2.1912   -0.8352    0.0000 N   0  0  0  0  0  0           0  0  0
    2.9037   -0.4227    0.0000 C   0  0  0  0  0  0           0  0  0
    0.7622   -0.8360    0.0000 C   0  0  0  0  0  0           0  0  0
    1.4758    0.4078    0.0000 C   0  0  0  0  0  0           0  0  0
    2.9000    0.1875    0.0000 O   0  0  0  0  0  0           0  0  0
    2.1875    0.8250    0.0000 O   0  0  0  0  0  0           0  0  0
    9.2250    0.8208    0.0000 C   0  0  0  0  0  0           0  0  0
 15 11  1  0     0  0
 16 15  1  0     0  0
  8  9  1  0     0  0
 14 17  2  0     0  0
  2  3  1  0     0  0
 13 18  2  0     0  0
 18  5  1  0     0  0
  9 10  2  0     0  0
 11 19  2  0     0  0
 10  5  1  0     0  0
 11 12  1  0     0  0
  5  6  2  0     0  0
  1  2  1  0     0  0
 22 23  1  0     0  0
  6  7  1  0     0  0
 23 24  1  0     0  0
 24 16  1  0     0  0
 21  1  2  0     0  0
  2  4  2  0     0  0
  1 25  1  0     0  0
 25 22  2  0     0  0
  7  8  2  0     0  0
 22 26  1  0     0  0
 26 20  2  0     0  0
 20 21  1  0     0  0
 12 13  1  0     0  0
 24 27  2  0     0  0
 13 14  1  0     0  0
 26 28  1  0     0  0
 14 15  1  0     0  0
  8 29  1  0     0  0
M  CHG  2   2   1   3  -1
M  END
>  <prID>
798

>  <IDDB>
225322

>  <pIC50_HIV_Integrase>
4.096910013

>  <Q>
2.300823128

>  <Activity_Integrase>
Inactive_Integrase

NA
NA
NA
NA
$$$$

  Accelrys05311914302D 1   1.00000     0.00000     0

 29 31  0     0  0            999 V2000
   -1.5901  -11.3357    0.0000 C   0  0  0  0  0  0           0  0  0
   -2.4379  -11.7867    0.0000 N   0  3  0  0  0  0           0  0  0
   -2.4511  -12.7244    0.0000 O   0  5  0  0  0  0           0  0  0
   -3.0733  -11.2604    0.0000 O   0  0  0  0  0  0           0  0  0
    5.4486  -11.3371    0.0000 C   0  0  0  0  0  0           0  0  0
    5.4474  -10.5097    0.0000 C   0  0  0  0  0  0           0  0  0
    6.1622  -10.0968    0.0000 C   0  0  0  0  0  0           0  0  0
    6.8787  -10.5102    0.0000 C   0  0  0  0  0  0           0  0  0
    6.8758  -11.3407    0.0000 C   0  0  0  0  0  0           0  0  0
    6.1604  -11.7498    0.0000 C   0  0  0  0  0  0           0  0  0
    2.9416  -10.5495    0.0000 C   0  0  0  0  0  0           0  0  0
    3.7666  -10.5495    0.0000 S   0  0  0  0  0  0           0  0  0
    4.0234  -11.3336    0.0000 C   0  0  0  0  0  0           0  0  0
    3.3541  -11.8204    0.0000 C   0  0  0  0  0  0           0  0  0
    2.6891  -11.3336    0.0000 N   0  0  3  0  0  0           0  0  0
    1.9787  -11.7477    0.0000 C   0  0  0  0  0  0           0  0  0
    3.3458  -12.6454    0.0000 O   0  0  0  0  0  0           0  0  0
    4.7333  -11.7537    0.0000 C   0  0  0  0  0  0           0  0  0
    2.3500   -9.9662    0.0000 S   0  0  0  0  0  0           0  0  0
   -0.8771  -10.0955    0.0000 C   0  0  0  0  0  0           0  0  0
   -1.5889  -10.5083    0.0000 C   0  0  0  0  0  0           0  0  0
   -0.1588  -11.3352    0.0000 C   0  0  0  0  0  0           0  0  0
    0.5537  -11.7477    0.0000 N   0  0  0  0  0  0           0  0  0
    1.2662  -11.3352    0.0000 C   0  0  0  0  0  0           0  0  0
   -0.8753  -11.7485    0.0000 C   0  0  0  0  0  0           0  0  0
   -0.1617  -10.5047    0.0000 C   0  0  0  0  0  0           0  0  0
    1.2625  -10.7250    0.0000 O   0  0  0  0  0  0           0  0  0
    0.5500  -10.0875    0.0000 O   0  0  0  0  0  0           0  0  0
    4.7292  -10.0958    0.0000 Cl  0  0  0  0  0  0           0  0  0
 15 11  1  0     0  0
 16 15  1  0     0  0
  8  9  1  0     0  0
 14 17  2  0     0  0
  2  3  1  0     0  0
 13 18  2  0     0  0
 18  5  1  0     0  0
  9 10  2  0     0  0
 11 19  2  0     0  0
 10  5  1  0     0  0
 11 12  1  0     0  0
  5  6  2  0     0  0
  1  2  1  0     0  0
 22 23  1  0     0  0
  6  7  1  0     0  0
 23 24  1  0     0  0
 24 16  1  0     0  0
 21  1  2  0     0  0
  2  4  2  0     0  0
  1 25  1  0     0  0
 25 22  2  0     0  0
  7  8  2  0     0  0
 22 26  1  0     0  0
 26 20  2  0     0  0
 20 21  1  0     0  0
 12 13  1  0     0  0
 24 27  2  0     0  0
 13 14  1  0     0  0
 26 28  1  0     0  0
 14 15  1  0     0  0
  6 29  1  0     0  0
M  CHG  2   2   1   3  -1
M  END
>  <prID>
799

>  <IDDB>
225324

>  <pIC50_HIV_Integrase>
4.744727495

>  <Q>
1.542590388

>  <Activity_Integrase>
Inactive_Integrase

NA
NA
NA
NA
$$$$

  Accelrys05311914302D 1   1.00000     0.00000     0

 32 34  0     0  0            999 V2000
    0.3432   -7.0940    0.0000 C   0  0  0  0  0  0           0  0  0
   -0.5046   -7.5450    0.0000 Cl  0  0  0  0  0  0           0  0  0
    7.3819   -7.0954    0.0000 C   0  0  0  0  0  0           0  0  0
    7.3807   -6.2680    0.0000 C   0  0  0  0  0  0           0  0  0
    8.0956   -5.8552    0.0000 C   0  0  0  0  0  0           0  0  0
    8.8120   -6.2685    0.0000 C   0  0  0  0  0  0           0  0  0
    8.8091   -7.0990    0.0000 C   0  0  0  0  0  0           0  0  0
    8.0938   -7.5082    0.0000 C   0  0  0  0  0  0           0  0  0
    4.8750   -6.3078    0.0000 C   0  0  0  0  0  0           0  0  0
    5.7000   -6.3078    0.0000 S   0  0  0  0  0  0           0  0  0
    5.9568   -7.0920    0.0000 C   0  0  0  0  0  0           0  0  0
    5.2875   -7.5787    0.0000 C   0  0  0  0  0  0           0  0  0
    4.6224   -7.0920    0.0000 N   0  0  3  0  0  0           0  0  0
    3.9120   -7.5060    0.0000 C   0  0  0  0  0  0           0  0  0
    5.2792   -8.4037    0.0000 O   0  0  0  0  0  0           0  0  0
    6.6667   -7.5120    0.0000 C   0  0  0  0  0  0           0  0  0
    4.2833   -5.7245    0.0000 S   0  0  0  0  0  0           0  0  0
    1.0563   -5.8539    0.0000 C   0  0  0  0  0  0           0  0  0
    0.3444   -6.2666    0.0000 C   0  0  0  0  0  0           0  0  0
    1.7745   -7.0935    0.0000 C   0  0  0  0  0  0           0  0  0
    2.4870   -7.5060    0.0000 N   0  0  0  0  0  0           0  0  0
    3.1995   -7.0935    0.0000 C   0  0  0  0  0  0           0  0  0
    1.0581   -7.5069    0.0000 C   0  0  0  0  0  0           0  0  0
    1.7716   -6.2630    0.0000 C   0  0  0  0  0  0           0  0  0
    3.1958   -6.4833    0.0000 O   0  0  0  0  0  0           0  0  0
    2.4833   -5.8458    0.0000 O   0  0  0  0  0  0           0  0  0
    9.5208   -5.8500    0.0000 O   0  0  0  0  0  0           0  0  0
   10.2333   -6.2625    0.0000 C   0  0  0  0  0  0           0  0  0
    8.0875   -5.0292    0.0000 O   0  0  0  0  0  0           0  0  0
    8.8000   -4.6125    0.0000 C   0  0  0  0  0  0           0  0  0
    9.5208   -7.5083    0.0000 O   0  0  0  0  0  0           0  0  0
   10.2333   -7.0917    0.0000 C   0  0  0  0  0  0           0  0  0
 16  3  1  0     0  0
  9 10  1  0     0  0
  9 17  2  0     0  0
  4  5  1  0     0  0
  1  2  1  0     0  0
  5  6  2  0     0  0
  3  4  2  0     0  0
 20 21  1  0     0  0
  6  7  1  0     0  0
 21 22  1  0     0  0
 22 14  1  0     0  0
 19  1  2  0     0  0
 10 11  1  0     0  0
  1 23  1  0     0  0
 23 20  2  0     0  0
 11 12  1  0     0  0
 20 24  1  0     0  0
 24 18  2  0     0  0
 18 19  1  0     0  0
 12 13  1  0     0  0
 22 25  2  0     0  0
 13  9  1  0     0  0
 24 26  1  0     0  0
  6 27  1  0     0  0
 14 13  1  0     0  0
 27 28  1  0     0  0
  7  8  2  0     0  0
  5 29  1  0     0  0
 12 15  2  0     0  0
 29 30  1  0     0  0
  8  3  1  0     0  0
  7 31  1  0     0  0
 11 16  2  0     0  0
 31 32  1  0     0  0
M  END
>  <prID>
800

>  <IDDB>
225325

>  <pIC50_HIV_Integrase>
4.769551079

>  <Q>
1.007962502

>  <Activity_Integrase>
Inactive_Integrase

NA
NA
NA
NA
$$$$

  Accelrys05311914302D 1   1.00000     0.00000     0

 40 43  0     0  0            999 V2000
    5.0630   -3.7703    0.0000 C   0  0  0  0  0  0           0  0  0
    4.6670   -4.4940    0.0000 S   0  0  0  0  0  0           0  0  0
    5.2316   -5.0957    0.0000 C   0  0  0  0  0  0           0  0  0
    5.9799   -4.7422    0.0000 C   0  0  0  0  0  0           0  0  0
    5.8721   -3.9252    0.0000 N   0  0  3  0  0  0           0  0  0
    6.7076   -5.1310    0.0000 O   0  0  0  0  0  0           0  0  0
    4.8353   -2.9713    0.0000 S   0  0  0  0  0  0           0  0  0
   10.1477   -3.9219    0.0000 C   0  0  0  0  0  0           0  0  0
    6.5790   -3.5098    0.0000 C   0  0  0  0  0  0           0  0  0
    9.4347   -5.1620    0.0000 C   0  0  0  0  0  0           0  0  0
   10.1466   -4.7492    0.0000 C   0  0  0  0  0  0           0  0  0
    8.7165   -3.9223    0.0000 C   0  0  0  0  0  0           0  0  0
    8.0040   -3.5098    0.0000 N   0  0  0  0  0  0           0  0  0
    7.2915   -3.9223    0.0000 C   0  0  0  0  0  0           0  0  0
    9.4329   -3.5090    0.0000 C   0  0  0  0  0  0           0  0  0
    8.7193   -4.7529    0.0000 C   0  0  0  0  0  0           0  0  0
    7.3035   -4.6534    0.0000 O   0  0  0  0  0  0           0  0  0
   10.8660   -5.1659    0.0000 C   0  0  0  0  0  0           0  0  0
   11.5826   -4.7575    0.0000 O   0  0  0  0  0  0           0  0  0
   10.8701   -5.9909    0.0000 O   0  0  0  0  0  0           0  0  0
    5.4279   -7.2455    0.0000 C   0  0  0  0  0  0           0  0  0
    5.8240   -6.5218    0.0000 S   0  0  0  0  0  0           0  0  0
    5.2594   -5.9201    0.0000 C   0  0  0  0  0  0           0  0  0
    4.5111   -6.2736    0.0000 C   0  0  0  0  0  0           0  0  0
    4.6188   -7.0907    0.0000 N   0  0  3  0  0  0           0  0  0
    3.7834   -5.8849    0.0000 O   0  0  0  0  0  0           0  0  0
    5.6556   -8.0446    0.0000 S   0  0  0  0  0  0           0  0  0
    0.3432   -7.0940    0.0000 C   0  0  0  0  0  0           0  0  0
    3.9120   -7.5060    0.0000 C   0  0  0  0  0  0           0  0  0
    1.0563   -5.8539    0.0000 C   0  0  0  0  0  0           0  0  0
    0.3444   -6.2666    0.0000 C   0  0  0  0  0  0           0  0  0
    1.7745   -7.0935    0.0000 C   0  0  0  0  0  0           0  0  0
    2.4870   -7.5060    0.0000 N   0  0  0  0  0  0           0  0  0
    3.1995   -7.0935    0.0000 C   0  0  0  0  0  0           0  0  0
    1.0581   -7.5069    0.0000 C   0  0  0  0  0  0           0  0  0
    1.7716   -6.2630    0.0000 C   0  0  0  0  0  0           0  0  0
    3.1958   -6.4833    0.0000 O   0  0  0  0  0  0           0  0  0
   -0.3750   -5.8500    0.0000 C   0  0  0  0  0  0           0  0  0
   -1.0917   -6.2583    0.0000 O   0  0  0  0  0  0           0  0  0
   -0.3792   -5.0250    0.0000 O   0  0  0  0  0  0           0  0  0
 18 20  2  0     0  0
  9  5  1  0     0  0
 21 22  1  0     0  0
  4  6  2  0     0  0
 12 13  1  0     0  0
 13 14  1  0     0  0
 14  9  1  0     0  0
 22 23  1  0     0  0
 23 24  1  0     0  0
 24 25  1  0     0  0
 25 21  1  0     0  0
 11  8  2  0     0  0
 24 26  2  0     0  0
 23  3  2  0     0  0
  1  7  2  0     0  0
 21 27  2  0     0  0
  8 15  1  0     0  0
 15 12  2  0     0  0
  2  3  1  0     0  0
 12 16  1  0     0  0
 16 10  2  0     0  0
 10 11  1  0     0  0
 32 33  1  0     0  0
  3  4  1  0     0  0
 33 34  1  0     0  0
 34 29  1  0     0  0
 31 28  2  0     0  0
 14 17  2  0     0  0
 28 35  1  0     0  0
 35 32  2  0     0  0
  4  5  1  0     0  0
 32 36  1  0     0  0
 36 30  2  0     0  0
 30 31  1  0     0  0
 11 18  1  0     0  0
 34 37  2  0     0  0
  5  1  1  0     0  0
 31 38  1  0     0  0
 18 19  1  0     0  0
 38 39  1  0     0  0
  1  2  1  0     0  0
 38 40  2  0     0  0
 29 25  1  0     0  0
M  END
>  <prID>
801

>  <IDDB>
225327

>  <pIC50_HIV_Integrase>
4.124938737

>  <Q>
3.188104118

>  <Activity_Integrase>
Inactive_Integrase

NA
NA
NA
NA
$$$$

  Accelrys05311914302D 1   1.00000     0.00000     0

 36 39  0     0  0            999 V2000
    5.0630   -3.7703    0.0000 C   0  0  0  0  0  0           0  0  0
    4.6670   -4.4940    0.0000 S   0  0  0  0  0  0           0  0  0
    5.2316   -5.0957    0.0000 C   0  0  0  0  0  0           0  0  0
    5.9799   -4.7422    0.0000 C   0  0  0  0  0  0           0  0  0
    5.8721   -3.9252    0.0000 N   0  0  3  0  0  0           0  0  0
    6.7076   -5.1310    0.0000 O   0  0  0  0  0  0           0  0  0
    4.8353   -2.9713    0.0000 S   0  0  0  0  0  0           0  0  0
   10.1477   -3.9219    0.0000 C   0  0  0  0  0  0           0  0  0
    6.5790   -3.5098    0.0000 C   0  0  0  0  0  0           0  0  0
    9.4347   -5.1620    0.0000 C   0  0  0  0  0  0           0  0  0
   10.1466   -4.7492    0.0000 C   0  0  0  0  0  0           0  0  0
    8.7165   -3.9223    0.0000 C   0  0  0  0  0  0           0  0  0
    8.0040   -3.5098    0.0000 N   0  0  0  0  0  0           0  0  0
    7.2915   -3.9223    0.0000 C   0  0  0  0  0  0           0  0  0
    9.4329   -3.5090    0.0000 C   0  0  0  0  0  0           0  0  0
    8.7193   -4.7529    0.0000 C   0  0  0  0  0  0           0  0  0
    7.3035   -4.6534    0.0000 O   0  0  0  0  0  0           0  0  0
   10.8660   -5.1659    0.0000 O   0  0  0  0  0  0           0  0  0
    5.4279   -7.2455    0.0000 C   0  0  0  0  0  0           0  0  0
    5.8240   -6.5218    0.0000 S   0  0  0  0  0  0           0  0  0
    5.2594   -5.9201    0.0000 C   0  0  0  0  0  0           0  0  0
    4.5111   -6.2736    0.0000 C   0  0  0  0  0  0           0  0  0
    4.6188   -7.0907    0.0000 N   0  0  3  0  0  0           0  0  0
    3.7834   -5.8849    0.0000 O   0  0  0  0  0  0           0  0  0
    5.6556   -8.0446    0.0000 S   0  0  0  0  0  0           0  0  0
    0.3432   -7.0940    0.0000 C   0  0  0  0  0  0           0  0  0
    3.9120   -7.5060    0.0000 C   0  0  0  0  0  0           0  0  0
    1.0563   -5.8539    0.0000 C   0  0  0  0  0  0           0  0  0
    0.3444   -6.2666    0.0000 C   0  0  0  0  0  0           0  0  0
    1.7745   -7.0935    0.0000 C   0  0  0  0  0  0           0  0  0
    2.4870   -7.5060    0.0000 N   0  0  0  0  0  0           0  0  0
    3.1995   -7.0935    0.0000 C   0  0  0  0  0  0           0  0  0
    1.0581   -7.5069    0.0000 C   0  0  0  0  0  0           0  0  0
    1.7716   -6.2630    0.0000 C   0  0  0  0  0  0           0  0  0
    3.1958   -6.4833    0.0000 O   0  0  0  0  0  0           0  0  0
   -0.3750   -5.8500    0.0000 O   0  0  0  0  0  0           0  0  0
 11 18  1  0     0  0
  9  5  1  0     0  0
 19 20  1  0     0  0
  5  1  1  0     0  0
  1  2  1  0     0  0
  4  6  2  0     0  0
 12 13  1  0     0  0
 20 21  1  0     0  0
 21 22  1  0     0  0
 22 23  1  0     0  0
 23 19  1  0     0  0
 13 14  1  0     0  0
 22 24  2  0     0  0
 21  3  2  0     0  0
 14  9  1  0     0  0
 19 25  2  0     0  0
 11  8  2  0     0  0
  1  7  2  0     0  0
  8 15  1  0     0  0
 15 12  2  0     0  0
  2  3  1  0     0  0
 12 16  1  0     0  0
 30 31  1  0     0  0
 16 10  2  0     0  0
 31 32  1  0     0  0
 32 27  1  0     0  0
 29 26  2  0     0  0
 10 11  1  0     0  0
 26 33  1  0     0  0
 33 30  2  0     0  0
  3  4  1  0     0  0
 30 34  1  0     0  0
 34 28  2  0     0  0
 28 29  1  0     0  0
 14 17  2  0     0  0
 32 35  2  0     0  0
  4  5  1  0     0  0
 29 36  1  0     0  0
 27 23  1  0     0  0
M  END
>  <prID>
802

>  <IDDB>
225328

>  <pIC50_HIV_Integrase>
4.161150909

>  <Q>
3.350113028

>  <Activity_Integrase>
Inactive_Integrase

NA
NA
NA
NA
$$$$

  Accelrys05311914302D 1   1.00000     0.00000     0

 35 38  0     0  0            999 V2000
   -1.7125   -0.6050    0.0000 S   0  0  0  0  0  0           0  0  0
   -1.0667   -0.0917    0.0000 C   0  0  0  0  0  0           0  0  0
   -1.3535    0.6820    0.0000 N   0  0  0  0  0  0           0  0  0
   -2.1803    0.6466    0.0000 C   0  0  0  0  0  0           0  0  0
   -2.3981   -0.1483    0.0000 C   0  0  0  0  0  0           0  0  0
    8.9361   -1.4088    0.0000 C   0  0  0  0  0  0           0  0  0
    8.9349   -2.2361    0.0000 C   0  0  0  0  0  0           0  0  0
    9.6497   -2.6490    0.0000 C   0  0  0  0  0  0           0  0  0
   10.3662   -2.2356    0.0000 C   0  0  0  0  0  0           0  0  0
   10.3633   -1.4051    0.0000 C   0  0  0  0  0  0           0  0  0
    9.6479   -0.9960    0.0000 C   0  0  0  0  0  0           0  0  0
    6.4291   -2.1963    0.0000 C   0  0  0  0  0  0           0  0  0
    7.2541   -2.1963    0.0000 S   0  0  0  0  0  0           0  0  0
    7.5109   -1.4122    0.0000 C   0  0  0  0  0  0           0  0  0
    6.8416   -0.9255    0.0000 C   0  0  0  0  0  0           0  0  0
    6.1766   -1.4122    0.0000 N   0  0  3  0  0  0           0  0  0
    6.8333   -0.1005    0.0000 O   0  0  0  0  0  0           0  0  0
    8.2208   -0.9921    0.0000 C   0  0  0  0  0  0           0  0  0
    5.8375   -2.7796    0.0000 S   0  0  0  0  0  0           0  0  0
    4.7495   -1.4102    0.0000 C   0  0  0  0  0  0           0  0  0
    5.4620   -0.9977    0.0000 C   0  0  0  0  0  0           0  0  0
    1.8938    0.2420    0.0000 C   0  0  0  0  0  0           0  0  0
    1.1819   -0.1708    0.0000 C   0  0  0  0  0  0           0  0  0
    2.6120   -0.9977    0.0000 C   0  0  0  0  0  0           0  0  0
    3.3245   -1.4102    0.0000 N   0  0  0  0  0  0           0  0  0
    4.0370   -0.9977    0.0000 C   0  0  0  0  0  0           0  0  0
    1.1807   -0.9982    0.0000 C   0  0  0  0  0  0           0  0  0
    1.8956   -1.4110    0.0000 C   0  0  0  0  0  0           0  0  0
    2.6091   -0.1672    0.0000 C   0  0  0  0  0  0           0  0  0
    4.0333   -0.3875    0.0000 O   0  0  0  0  0  0           0  0  0
    0.4625    0.2458    0.0000 S   0  0  3  0  0  0           0  0  0
    1.1208    0.9083    0.0000 O   0  0  0  0  0  0           0  0  0
   11.0750   -2.6458    0.0000 C   0  0  0  0  0  0           0  0  0
   -0.2250    0.8458    0.0000 O   0  0  0  0  0  0           0  0  0
   -0.3167   -0.5000    0.0000 N   0  0  0  0  0  0           0  0  0
  8  9  2  0     0  0
 14 18  2  0     0  0
 18  6  1  0     0  0
  4  5  2  0     0  0
 12 19  2  0     0  0
  9 10  1  0     0  0
  5  1  1  0     0  0
 20 21  1  0     0  0
 21 16  1  0     0  0
 10 11  2  0     0  0
 11  6  1  0     0  0
 12 13  1  0     0  0
  1  2  1  0     0  0
 24 25  1  0     0  0
 25 26  1  0     0  0
 26 20  1  0     0  0
  6  7  2  0     0  0
 23 27  2  0     0  0
  2  3  2  0     0  0
 27 28  1  0     0  0
 28 24  2  0     0  0
  7  8  1  0     0  0
 24 29  1  0     0  0
 29 22  2  0     0  0
 22 23  1  0     0  0
 13 14  1  0     0  0
 26 30  2  0     0  0
 14 15  1  0     0  0
 23 31  1  0     0  0
 15 16  1  0     0  0
 31 32  2  0     0  0
 16 12  1  0     0  0
  9 33  1  0     0  0
  3  4  1  0     0  0
 31 34  2  0     0  0
 15 17  2  0     0  0
 31 35  1  0     0  0
 35  2  1  0     0  0
M  END
>  <prID>
803

>  <IDDB>
225330

>  <pIC50_HIV_Integrase>
4.356547324

>  <Q>
2.49167855

>  <Activity_Integrase>
Inactive_Integrase

NA
NA
NA
NA
$$$$

  Accelrys05311914302D 1   1.00000     0.00000     0

 28 31  0     0  0            999 V2000
   11.0206    0.4116    0.0000 S   0  0  0  0  0  0           0  0  0
   10.5342   -0.2620    0.0000 C   0  0  0  0  0  0           0  0  0
   11.0256   -0.9298    0.0000 C   0  0  0  0  0  0           0  0  0
   11.8127   -0.6693    0.0000 C   0  0  0  0  0  0           0  0  0
   11.8089    0.1598    0.0000 C   0  0  0  0  0  0           0  0  0
    9.7077   -0.2537    0.0000 C   0  0  0  0  0  0           0  0  0
    8.7073   -2.2324    0.0000 C   0  0  0  0  0  0           0  0  0
    9.3738   -1.7462    0.0000 S   0  0  0  0  0  0           0  0  0
    9.1525   -0.9614    0.0000 C   0  0  0  0  0  0           0  0  0
    8.2916   -0.9625    0.0000 C   0  0  0  0  0  0           0  0  0
    8.0412   -1.7477    0.0000 C   0  0  3  0  0  0           0  0  0
    7.7988   -0.3009    0.0000 O   0  0  0  0  0  0           0  0  0
    8.7063   -3.1231    0.0000 S   0  0  0  0  0  0           0  0  0
    2.3167   -2.5702    0.0000 C   0  0  0  0  0  0           0  0  0
    3.1019   -2.8234    0.0000 S   0  0  0  0  0  0           0  0  0
    3.5870   -2.1560    0.0000 C   0  0  0  0  0  0           0  0  0
    3.0995   -1.4873    0.0000 N   0  0  0  0  0  0           0  0  0
    2.3171   -1.7464    0.0000 C   0  0  0  0  0  0           0  0  0
    0.8857   -1.7440    0.0000 C   0  0  0  0  0  0           0  0  0
    0.8845   -2.5714    0.0000 C   0  0  0  0  0  0           0  0  0
    1.5993   -2.9842    0.0000 C   0  0  0  0  0  0           0  0  0
    1.5975   -1.3312    0.0000 C   0  0  0  0  0  0           0  0  0
    5.9037   -2.1602    0.0000 C   0  0  0  0  0  0           0  0  0
    6.6162   -1.7477    0.0000 C   0  0  0  0  0  0           0  0  0
    7.3287   -2.1602    0.0000 C   0  0  0  0  0  0           0  0  0
    4.4787   -2.1602    0.0000 N   0  0  0  0  0  0           0  0  0
    5.1912   -1.7477    0.0000 C   0  0  0  0  0  0           0  0  0
    5.1875   -1.1375    0.0000 O   0  0  0  0  0  0           0  0  0
 14 15  1  0     0  0
  7  8  1  0     0  0
  1  2  1  0     0  0
  3  4  1  0     0  0
  4  5  2  0     0  0
 15 16  1  0     0  0
 16 17  2  0     0  0
 17 18  1  0     0  0
 18 14  1  0     0  0
  5  1  1  0     0  0
  8  9  1  0     0  0
 19 20  2  0     0  0
  9 10  1  0     0  0
 20 21  1  0     0  0
 21 14  2  0     0  0
 10 11  1  0     0  0
 18 22  2  0     0  0
 22 19  1  0     0  0
 11  7  1  0     0  0
  2  3  2  0     0  0
 23 24  1  0     0  0
 10 12  2  0     0  0
 24 25  1  0     0  0
 25 11  1  0     0  0
  9  6  2  0     0  0
 16 26  1  0     0  0
  2  6  1  0     0  0
 26 27  1  0     0  0
 27 23  1  0     0  0
  7 13  2  0     0  0
 27 28  2  0     0  0
M  END
>  <prID>
804

>  <IDDB>
225332

>  <pIC50_HIV_Integrase>
4

>  <Q>
3.951239164

>  <Activity_Integrase>
Inactive_Integrase

NA
NA
NA
NA
$$$$

  Accelrys05311914302D 1   1.00000     0.00000     0

 31 35  0     0  0            999 V2000
    1.9100   -4.0012    0.0000 C   0  0  0  0  0  0           0  0  0
    1.1196   -4.2375    0.0000 O   0  0  0  0  0  0           0  0  0
    0.6489   -3.5597    0.0000 C   0  0  0  0  0  0           0  0  0
    1.1508   -2.9017    0.0000 O   0  0  0  0  0  0           0  0  0
    1.9274   -3.1776    0.0000 C   0  0  0  0  0  0           0  0  0
    3.3431   -3.1750    0.0000 C   0  0  0  0  0  0           0  0  0
    3.3443   -4.0023    0.0000 C   0  0  0  0  0  0           0  0  0
    2.6294   -4.4152    0.0000 C   0  0  0  0  0  0           0  0  0
    2.6312   -2.7622    0.0000 C   0  0  0  0  0  0           0  0  0
   11.0983   -5.2345    0.0000 C   0  0  0  0  0  0           0  0  0
   11.8888   -5.4708    0.0000 O   0  0  0  0  0  0           0  0  0
   12.3594   -4.7931    0.0000 C   0  0  0  0  0  0           0  0  0
   11.8576   -4.1350    0.0000 O   0  0  0  0  0  0           0  0  0
   11.0810   -4.4109    0.0000 C   0  0  0  0  0  0           0  0  0
    9.6652   -4.4083    0.0000 C   0  0  0  0  0  0           0  0  0
    9.6641   -5.2357    0.0000 C   0  0  0  0  0  0           0  0  0
   10.3789   -5.6485    0.0000 C   0  0  0  0  0  0           0  0  0
   10.3771   -3.9955    0.0000 C   0  0  0  0  0  0           0  0  0
    7.1583   -5.2005    0.0000 C   0  0  0  0  0  0           0  0  0
    7.9833   -5.2005    0.0000 S   0  0  0  0  0  0           0  0  0
    8.2401   -4.4164    0.0000 C   0  0  0  0  0  0           0  0  0
    7.5708   -3.9296    0.0000 C   0  0  0  0  0  0           0  0  0
    6.9058   -4.4164    0.0000 N   0  0  3  0  0  0           0  0  0
    7.5625   -3.1046    0.0000 O   0  0  0  0  0  0           0  0  0
    8.9500   -3.9963    0.0000 C   0  0  0  0  0  0           0  0  0
    6.5667   -5.7838    0.0000 S   0  0  0  0  0  0           0  0  0
    5.4787   -4.4144    0.0000 C   0  0  0  0  0  0           0  0  0
    6.1912   -4.0019    0.0000 C   0  0  0  0  0  0           0  0  0
    4.0537   -4.4144    0.0000 N   0  0  0  0  0  0           0  0  0
    4.7662   -4.0019    0.0000 C   0  0  0  0  0  0           0  0  0
    4.7417   -3.2167    0.0000 O   0  0  0  0  0  0           0  0  0
  7  8  1  0     0  0
 15 16  2  0     0  0
  8  1  2  0     0  0
 16 17  1  0     0  0
 17 10  2  0     0  0
  3  4  1  0     0  0
 14 18  2  0     0  0
 18 15  1  0     0  0
 19 20  1  0     0  0
  5  9  2  0     0  0
  9  6  1  0     0  0
 10 11  1  0     0  0
  4  5  1  0     0  0
  5  1  1  0     0  0
 20 21  1  0     0  0
 21 22  1  0     0  0
 22 23  1  0     0  0
 23 19  1  0     0  0
  1  2  1  0     0  0
 22 24  2  0     0  0
 21 25  2  0     0  0
 25 15  1  0     0  0
  6  7  2  0     0  0
 19 26  2  0     0  0
 11 12  1  0     0  0
 12 13  1  0     0  0
 27 28  1  0     0  0
 28 23  1  0     0  0
 13 14  1  0     0  0
  7 29  1  0     0  0
 14 10  1  0     0  0
 29 30  1  0     0  0
 30 27  1  0     0  0
  2  3  1  0     0  0
 30 31  2  0     0  0
M  END
>  <prID>
805

>  <IDDB>
225333

>  <pIC50_HIV_Integrase>
4.031517051

>  <Q>
1.442793837

>  <Activity_Integrase>
Inactive_Integrase

NA
NA
NA
NA
$$$$

  Accelrys05311914302D 1   1.00000     0.00000     0

 32 34  0     0  0            999 V2000
    1.9100   -4.0012    0.0000 C   0  0  0  0  0  0           0  0  0
    1.9274   -3.1776    0.0000 C   0  0  0  0  0  0           0  0  0
    3.3431   -3.1750    0.0000 C   0  0  0  0  0  0           0  0  0
    3.3443   -4.0023    0.0000 C   0  0  0  0  0  0           0  0  0
    2.6294   -4.4152    0.0000 C   0  0  0  0  0  0           0  0  0
    2.6312   -2.7622    0.0000 C   0  0  0  0  0  0           0  0  0
   11.0983   -5.2345    0.0000 C   0  0  0  0  0  0           0  0  0
   11.8263   -5.6875    0.0000 F   0  0  0  0  0  0           0  0  0
   11.0810   -4.4109    0.0000 C   0  0  0  0  0  0           0  0  0
    9.6652   -4.4083    0.0000 C   0  0  0  0  0  0           0  0  0
    9.6641   -5.2357    0.0000 C   0  0  0  0  0  0           0  0  0
   10.3789   -5.6485    0.0000 C   0  0  0  0  0  0           0  0  0
   10.3771   -3.9955    0.0000 C   0  0  0  0  0  0           0  0  0
    7.1583   -5.2005    0.0000 C   0  0  0  0  0  0           0  0  0
    7.9833   -5.2005    0.0000 S   0  0  0  0  0  0           0  0  0
    8.2401   -4.4164    0.0000 C   0  0  0  0  0  0           0  0  0
    7.5708   -3.9296    0.0000 C   0  0  0  0  0  0           0  0  0
    6.9058   -4.4164    0.0000 N   0  0  3  0  0  0           0  0  0
    7.5625   -3.1046    0.0000 O   0  0  0  0  0  0           0  0  0
    8.9500   -3.9963    0.0000 C   0  0  0  0  0  0           0  0  0
    6.5667   -5.7838    0.0000 S   0  0  0  0  0  0           0  0  0
    5.4787   -4.4144    0.0000 C   0  0  0  0  0  0           0  0  0
    6.1912   -4.0019    0.0000 C   0  0  0  0  0  0           0  0  0
    4.0537   -4.4144    0.0000 N   0  0  0  0  0  0           0  0  0
    4.7662   -4.0019    0.0000 C   0  0  0  0  0  0           0  0  0
    4.7417   -3.2167    0.0000 O   0  0  0  0  0  0           0  0  0
    1.2083   -2.7625    0.0000 S   0  0  3  0  0  0           0  0  0
    1.7917   -2.1750    0.0000 O   0  0  0  0  0  0           0  0  0
    0.4917   -2.3500    0.0000 O   0  0  0  0  0  0           0  0  0
    0.6208   -3.3458    0.0000 N   0  3  0  0  0  0           0  0  0
   -0.0958   -2.9333    0.0000 O   0  0  0  0  0  0           0  0  0
    0.6167   -4.1708    0.0000 O   0  5  0  0  0  0           0  0  0
  9  7  1  0     0  0
 15 16  1  0     0  0
 16 17  1  0     0  0
 17 18  1  0     0  0
 18 14  1  0     0  0
  5  1  2  0     0  0
 17 19  2  0     0  0
  2  1  1  0     0  0
 16 20  2  0     0  0
 20 10  1  0     0  0
 10 11  2  0     0  0
 14 21  2  0     0  0
  2  6  2  0     0  0
 11 12  1  0     0  0
 22 23  1  0     0  0
 23 18  1  0     0  0
 12  7  2  0     0  0
  4 24  1  0     0  0
  6  3  1  0     0  0
 24 25  1  0     0  0
 25 22  1  0     0  0
  9 13  2  0     0  0
 25 26  2  0     0  0
 13 10  1  0     0  0
  2 27  1  0     0  0
 14 15  1  0     0  0
 27 28  2  0     0  0
  7  8  1  0     0  0
 27 29  2  0     0  0
  3  4  2  0     0  0
 27 30  1  0     0  0
 30 31  2  0     0  0
  4  5  1  0     0  0
 30 32  1  0     0  0
M  CHG  2  30   1  32  -1
M  END
>  <prID>
806

>  <IDDB>
225334

>  <pIC50_HIV_Integrase>
4.075720714

>  <Q>
0.025113733

>  <Activity_Integrase>
Inactive_Integrase

NA
NA
NA
NA
$$$$

  Accelrys05311914302D 1   1.00000     0.00000     0

 25 27  0     0  0            999 V2000
    2.5777   -5.3666    0.0000 C   0  0  0  0  0  0           0  0  0
    2.5766   -6.1940    0.0000 C   0  0  0  0  0  0           0  0  0
    3.2914   -6.6069    0.0000 C   0  0  0  0  0  0           0  0  0
    4.0078   -6.1935    0.0000 C   0  0  0  0  0  0           0  0  0
    4.0050   -5.3630    0.0000 C   0  0  0  0  0  0           0  0  0
    3.2896   -4.9539    0.0000 C   0  0  0  0  0  0           0  0  0
    4.7167   -6.6042    0.0000 C   0  0  0  0  0  0           0  0  0
    3.2833   -7.4292    0.0000 O   0  0  0  0  0  0           0  0  0
    5.4287   -6.1898    0.0000 N   0  0  0  0  0  0           0  0  0
    4.6917   -7.3875    0.0000 O   0  0  0  0  0  0           0  0  0
    6.2016   -6.1878    0.0000 N   0  0  3  0  0  0           0  0  0
   10.3942   -5.3697    0.0000 C   0  0  0  0  0  0           0  0  0
   10.3768   -6.1933    0.0000 C   0  0  0  0  0  0           0  0  0
    8.9611   -6.1959    0.0000 C   0  0  0  0  0  0           0  0  0
    8.9599   -5.3685    0.0000 C   0  0  0  0  0  0           0  0  0
    9.6747   -4.9556    0.0000 C   0  0  0  0  0  0           0  0  0
    9.6729   -6.6086    0.0000 C   0  0  0  0  0  0           0  0  0
    6.4541   -5.4037    0.0000 C   0  0  0  0  0  0           0  0  0
    7.2791   -5.4037    0.0000 S   0  0  0  0  0  0           0  0  0
    7.5359   -6.1878    0.0000 C   0  0  0  0  0  0           0  0  0
    6.8666   -6.6745    0.0000 C   0  0  0  0  0  0           0  0  0
    6.8583   -7.4995    0.0000 O   0  0  0  0  0  0           0  0  0
    8.2458   -6.6079    0.0000 C   0  0  0  0  0  0           0  0  0
    5.8625   -4.8204    0.0000 S   0  0  0  0  0  0           0  0  0
   11.1042   -4.9500    0.0000 Br  0  0  0  0  0  0           0  0  0
 13 12  1  0     0  0
  1  2  2  0     0  0
  4  7  1  0     0  0
 14 15  2  0     0  0
  3  4  2  0     0  0
 15 16  1  0     0  0
 16 12  2  0     0  0
  3  8  1  0     0  0
 13 17  2  0     0  0
 17 14  1  0     0  0
 18 19  1  0     0  0
  7  9  1  0     0  0
  4  5  1  0     0  0
  7 10  2  0     0  0
 19 20  1  0     0  0
 20 21  1  0     0  0
 21 11  1  0     0  0
 11 18  1  0     0  0
  2  3  1  0     0  0
 21 22  2  0     0  0
  9 11  1  0     0  0
 20 23  2  0     0  0
 23 14  1  0     0  0
  5  6  2  0     0  0
 18 24  2  0     0  0
  6  1  1  0     0  0
 12 25  1  0     0  0
M  END
>  <prID>
807

>  <IDDB>
225336

>  <pIC50_HIV_Integrase>
4.568636236

>  <Q>
2.670602229

>  <Activity_Integrase>
Inactive_Integrase

NA
NA
NA
NA
$$$$

  Accelrys05311914302D 1   1.00000     0.00000     0

 28 30  0     0  0            999 V2000
    0.5736   -4.2000    0.0000 C   0  0  0  0  0  0           0  0  0
    0.5724   -5.0273    0.0000 C   0  0  0  0  0  0           0  0  0
    1.2872   -5.4402    0.0000 C   0  0  0  0  0  0           0  0  0
    2.0037   -5.0269    0.0000 C   0  0  0  0  0  0           0  0  0
    2.0008   -4.1963    0.0000 C   0  0  0  0  0  0           0  0  0
    1.2854   -3.7872    0.0000 C   0  0  0  0  0  0           0  0  0
    2.7125   -5.4375    0.0000 C   0  0  0  0  0  0           0  0  0
    1.2792   -6.2625    0.0000 O   0  0  0  0  0  0           0  0  0
    2.6875   -6.2208    0.0000 O   0  0  0  0  0  0           0  0  0
    3.4250   -5.0208    0.0000 N   0  0  0  0  0  0           0  0  0
    4.2016   -5.0247    0.0000 N   0  0  3  0  0  0           0  0  0
    8.3942   -5.8428    0.0000 C   0  0  0  0  0  0           0  0  0
    8.3768   -5.0192    0.0000 C   0  0  0  0  0  0           0  0  0
    6.9611   -5.0166    0.0000 C   0  0  0  0  0  0           0  0  0
    6.9599   -5.8440    0.0000 C   0  0  0  0  0  0           0  0  0
    7.6747   -6.2569    0.0000 C   0  0  0  0  0  0           0  0  0
    7.6729   -4.6039    0.0000 C   0  0  0  0  0  0           0  0  0
    4.4541   -5.8088    0.0000 C   0  0  0  0  0  0           0  0  0
    5.2791   -5.8088    0.0000 S   0  0  0  0  0  0           0  0  0
    5.5359   -5.0247    0.0000 C   0  0  0  0  0  0           0  0  0
    4.8666   -4.5380    0.0000 C   0  0  0  0  0  0           0  0  0
    4.8583   -3.7130    0.0000 O   0  0  0  0  0  0           0  0  0
    6.2458   -4.6046    0.0000 C   0  0  0  0  0  0           0  0  0
    3.8625   -6.3921    0.0000 S   0  0  0  0  0  0           0  0  0
    9.1042   -6.2625    0.0000 O   0  0  0  0  0  0           0  0  0
    7.6667   -7.0792    0.0000 O   0  0  0  0  0  0           0  0  0
    6.9500   -7.4875    0.0000 C   0  0  0  0  0  0           0  0  0
    6.2333   -7.0750    0.0000 C   0  0  0  0  0  0           0  0  0
 14 15  2  0     0  0
  3  4  2  0     0  0
 15 16  1  0     0  0
 16 12  2  0     0  0
  3  8  1  0     0  0
 13 17  2  0     0  0
 17 14  1  0     0  0
 18 19  1  0     0  0
  7  9  2  0     0  0
  4  5  1  0     0  0
  7 10  1  0     0  0
 19 20  1  0     0  0
 20 21  1  0     0  0
 21 11  1  0     0  0
 11 18  1  0     0  0
  2  3  1  0     0  0
 21 22  2  0     0  0
 10 11  1  0     0  0
 20 23  2  0     0  0
 23 14  1  0     0  0
  5  6  2  0     0  0
 18 24  2  0     0  0
  6  1  1  0     0  0
 12 25  1  0     0  0
 13 12  1  0     0  0
 16 26  1  0     0  0
  1  2  2  0     0  0
 26 27  1  0     0  0
  4  7  1  0     0  0
 27 28  1  0     0  0
M  END
>  <prID>
808

>  <IDDB>
225338

>  <pIC50_HIV_Integrase>
4.420216403

>  <Q>
1.138593778

>  <Activity_Integrase>
Inactive_Integrase

NA
NA
NA
NA
$$$$

  Accelrys05311914302D 1   1.00000     0.00000     0

 29 32  0     0  0            999 V2000
    4.6907   -7.2833    0.0000 C   0  0  0  0  0  0           0  0  0
    5.4032   -7.6917    0.0000 N   0  0  0  0  0  0           0  0  0
    6.1157   -7.2792    0.0000 C   0  0  0  0  0  0           0  0  0
    6.8282   -7.6875    0.0000 C   0  0  0  0  0  0           0  0  0
    7.5407   -7.2750    0.0000 O   0  0  0  0  0  0           0  0  0
    3.2667   -6.4583    0.0000 N   0  0  3  0  0  0           0  0  0
    3.2667   -7.2833    0.0000 C   0  0  0  0  0  0           0  0  0
    3.9787   -7.6917    0.0000 N   0  0  0  0  0  0           0  0  0
    4.6907   -6.4583    0.0000 C   0  0  0  0  0  0           0  0  0
    3.9787   -6.0417    0.0000 C   0  0  0  0  0  0           0  0  0
    1.8417   -6.4583    0.0000 C   0  0  0  0  0  0           0  0  0
    1.8417   -7.2833    0.0000 C   0  0  0  0  0  0           0  0  0
    2.5537   -7.6917    0.0000 C   0  0  0  0  0  0           0  0  0
    2.5537   -6.0417    0.0000 C   0  0  0  0  0  0           0  0  0
    3.9708   -5.2167    0.0000 O   0  0  0  0  0  0           0  0  0
    5.4917   -6.0167    0.0000 C   0  0  0  0  0  0           0  0  0
    6.2833   -5.5583    0.0000 C   0  0  0  0  0  0           0  0  0
    7.1161   -2.1742    0.0000 O   0  0  0  0  0  0           0  0  0
    6.4456   -1.6835    0.0000 C   0  0  0  0  0  0           0  0  0
    5.7747   -2.1706    0.0000 C   0  0  0  0  0  0           0  0  0
    6.0302   -2.9594    0.0000 C   0  0  0  0  0  0           0  0  0
    6.8592   -2.9609    0.0000 C   0  0  0  0  0  0           0  0  0
    7.2667   -3.6708    0.0000 C   0  0  0  0  0  0           0  0  0
    7.0550   -4.4718    0.0000 N   0  0  3  0  0  0           0  0  0
    7.5480   -5.1318    0.0000 C   0  0  0  0  0  0           0  0  0
    7.0702   -5.8044    0.0000 S   0  0  0  0  0  0           0  0  0
    6.2730   -4.7321    0.0000 C   0  0  0  0  0  0           0  0  0
    5.6052   -4.2476    0.0000 O   0  0  0  0  0  0           0  0  0
    8.3953   -5.1247    0.0000 S   0  0  0  0  0  0           0  0  0
  6 14  1  0     0  0
 10 15  2  0     0  0
  4  5  1  0     0  0
  9 16  1  0     0  0
  6 10  1  0     0  0
 16 17  2  0     0  0
 19 20  2  0     0  0
  7  8  2  0     0  0
  8  1  1  0     0  0
  1  9  2  0     0  0
  9 10  1  0     0  0
 11 12  1  0     0  0
 18 19  1  0     0  0
 20 21  1  0     0  0
 21 22  2  0     0  0
 22 18  1  0     0  0
  6  7  1  0     0  0
 22 23  1  0     0  0
  2  3  1  0     0  0
 25 26  1  0     0  0
  1  2  1  0     0  0
  3  4  1  0     0  0
 11 14  2  0     0  0
 26 17  1  0     0  0
 17 27  1  0     0  0
 27 24  1  0     0  0
 24 25  1  0     0  0
 12 13  2  0     0  0
 27 28  2  0     0  0
 13  7  1  0     0  0
 25 29  2  0     0  0
 24 23  1  0     0  0
M  END
>  <prID>
809

>  <IDDB>
225339

>  <pIC50_HIV_Integrase>
4

>  <Q>
1.879195586

>  <Activity_Integrase>
Inactive_Integrase

NA
NA
NA
NA
$$$$

  Accelrys05311914302D 1   1.00000     0.00000     0

 25 27  0     0  0            999 V2000
    5.3278   -5.2760    0.0000 C   0  0  0  0  0  0           0  0  0
    6.0564   -4.8838    0.0000 C   0  0  0  0  0  0           0  0  0
    6.0799   -4.0586    0.0000 C   0  0  0  0  0  0           0  0  0
    5.3758   -3.6247    0.0000 C   0  0  0  0  0  0           0  0  0
    4.6464   -4.0219    0.0000 C   0  0  0  0  0  0           0  0  0
    4.6264   -4.8458    0.0000 C   0  0  0  0  0  0           0  0  0
    5.3466   -2.8206    0.0000 C   0  0  0  0  0  0           0  0  0
    6.8073   -3.6749    0.0000 Cl  0  0  0  0  0  0           0  0  0
    5.7478   -1.5420    0.0000 O   0  0  0  0  0  0           0  0  0
    4.9170   -1.5494    0.0000 C   0  0  0  0  0  0           0  0  0
    4.6703   -2.3409    0.0000 C   0  0  0  0  0  0           0  0  0
    6.0121   -2.3262    0.0000 N   0  0  0  0  0  0           0  0  0
    4.4655   -0.8637    0.0000 C   0  0  0  0  0  0           0  0  0
    3.8881   -2.6084    0.0000 C   0  0  0  0  0  0           0  0  0
    3.1745   -2.2019    0.0000 C   0  0  0  0  0  0           0  0  0
    3.8995   -3.4977    0.0000 O   0  0  0  0  0  0           0  0  0
    1.7444   -1.3750    0.0000 C   0  0  0  0  0  0           0  0  0
    1.7432   -2.2023    0.0000 C   0  0  0  0  0  0           0  0  0
    2.4581   -2.6152    0.0000 C   0  0  0  0  0  0           0  0  0
    3.1716   -1.3713    0.0000 C   0  0  0  0  0  0           0  0  0
    2.4563   -0.9622    0.0000 C   0  0  0  0  0  0           0  0  0
    1.0250   -0.9583    0.0000 O   0  0  0  0  0  0           0  0  0
    1.0250   -2.6083    0.0000 C   0  0  0  0  0  0           0  0  0
    1.0208   -3.4333    0.0000 O   0  0  0  0  0  0           0  0  0
    0.3083   -2.1958    0.0000 O   0  0  0  0  0  0           0  0  0
 12  9  1  0     0  0
  6  1  1  0     0  0
 13 10  1  0     0  0
  1  2  2  0     0  0
 11 14  1  0     0  0
  4  7  1  0     0  0
 14 15  1  0     0  0
  3  4  2  0     0  0
 14 16  2  0     0  0
  3  8  1  0     0  0
 10 11  2  0     0  0
 17 18  2  0     0  0
 18 19  1  0     0  0
 19 15  2  0     0  0
  4  5  1  0     0  0
 15 20  1  0     0  0
  2  3  1  0     0  0
 20 21  2  0     0  0
 21 17  1  0     0  0
  5  6  2  0     0  0
 17 22  1  0     0  0
  9 10  1  0     0  0
 18 23  1  0     0  0
 11  7  1  0     0  0
 23 24  2  0     0  0
  7 12  2  0     0  0
 23 25  1  0     0  0
M  END
>  <prID>
810

>  <IDDB>
225341

>  <pIC50_HIV_Integrase>
4

>  <Q>
-1.966752097

>  <Activity_Integrase>
Inactive_Integrase

NA
NA
NA
NA
$$$$

  Accelrys05311914302D 1   1.00000     0.00000     0

 27 30  0     0  0            999 V2000
    7.8016   -4.7088    0.0000 C   0  0  0  0  0  0           0  0  0
    8.5836   -4.4461    0.0000 C   0  0  0  0  0  0           0  0  0
    8.5774   -3.6210    0.0000 C   0  0  0  0  0  0           0  0  0
    7.7879   -3.3727    0.0000 C   0  0  0  0  0  0           0  0  0
    7.3125   -4.0458    0.0000 C   0  0  0  0  0  0           0  0  0
    9.2990   -4.8589    0.0000 C   0  0  0  0  0  0           0  0  0
   10.0155   -4.4455    0.0000 C   0  0  0  0  0  0           0  0  0
   10.0126   -3.6150    0.0000 C   0  0  0  0  0  0           0  0  0
    9.2972   -3.2059    0.0000 C   0  0  0  0  0  0           0  0  0
    7.5826   -5.5020    0.0000 O   0  0  0  0  0  0           0  0  0
    7.5701   -2.5687    0.0000 O   0  0  0  0  0  0           0  0  0
    5.4942   -2.1883    0.0000 C   0  0  0  0  0  0           0  0  0
    4.8208   -2.6750    0.0000 C   0  0  0  0  0  0           0  0  0
    5.0775   -3.4633    0.0000 O   0  0  0  0  0  0           0  0  0
    5.9067   -3.4633    0.0000 C   0  0  0  0  0  0           0  0  0
    6.1635   -2.6750    0.0000 C   0  0  0  0  0  0           0  0  0
    4.1120   -2.2644    0.0000 C   0  0  0  0  0  0           0  0  0
    2.6819   -1.4375    0.0000 C   0  0  0  0  0  0           0  0  0
    2.6807   -2.2648    0.0000 C   0  0  0  0  0  0           0  0  0
    3.3956   -2.6777    0.0000 C   0  0  0  0  0  0           0  0  0
    4.1091   -1.4338    0.0000 C   0  0  0  0  0  0           0  0  0
    3.3938   -1.0247    0.0000 C   0  0  0  0  0  0           0  0  0
    1.9625   -1.0208    0.0000 O   0  0  0  0  0  0           0  0  0
    1.9625   -2.6708    0.0000 C   0  0  0  0  0  0           0  0  0
    1.9583   -3.4958    0.0000 O   0  0  0  0  0  0           0  0  0
    1.2458   -2.2583    0.0000 O   0  0  0  0  0  0           0  0  0
    6.4875   -4.0458    0.0000 C   0  0  0  0  0  0           0  0  0
  6  7  2  0     0  0
  2  3  2  0     0  0
 12 13  2  0     0  0
 14 15  1  0     0  0
 15 16  2  0     0  0
 16 12  1  0     0  0
  7  8  1  0     0  0
  3  4  1  0     0  0
  8  9  2  0     0  0
 18 19  2  0     0  0
  9  3  1  0     0  0
 19 20  1  0     0  0
 20 17  2  0     0  0
  4  5  1  0     0  0
 17 21  1  0     0  0
  1 10  2  0     0  0
 21 22  2  0     0  0
 22 18  1  0     0  0
  5  1  1  0     0  0
 18 23  1  0     0  0
  4 11  2  0     0  0
 19 24  1  0     0  0
 13 14  1  0     0  0
 24 25  2  0     0  0
  1  2  1  0     0  0
 24 26  1  0     0  0
 17 13  1  0     0  0
  2  6  1  0     0  0
 15 27  1  0     0  0
 27  5  2  0     0  0
M  END
>  <prID>
811

>  <IDDB>
225343

>  <pIC50_HIV_Integrase>
4.366531544

>  <Q>
-0.385441409

>  <Activity_Integrase>
Inactive_Integrase

NA
NA
NA
NA
$$$$

  Accelrys05311914302D 1   1.00000     0.00000     0

 26 28  0     0  0            999 V2000
    5.2165   -9.9806    0.0000 C   0  0  0  0  0  0           0  0  0
    4.5064  -10.4051    0.0000 C   0  0  0  0  0  0           0  0  0
    4.5199  -11.2305    0.0000 C   0  0  0  0  0  0           0  0  0
    5.2429  -11.6324    0.0000 C   0  0  0  0  0  0           0  0  0
    5.9537  -11.2028    0.0000 C   0  0  0  0  0  0           0  0  0
    5.9366  -10.3788    0.0000 C   0  0  0  0  0  0           0  0  0
    5.2038   -9.1494    0.0000 C   0  0  0  0  0  0           0  0  0
    5.1524   -5.8554    0.0000 C   0  0  0  0  0  0           0  0  0
    4.4423   -6.2799    0.0000 C   0  0  0  0  0  0           0  0  0
    4.4558   -7.1052    0.0000 C   0  0  0  0  0  0           0  0  0
    5.1788   -7.5071    0.0000 C   0  0  0  0  0  0           0  0  0
    5.8896   -7.0775    0.0000 C   0  0  0  0  0  0           0  0  0
    5.8725   -6.2536    0.0000 C   0  0  0  0  0  0           0  0  0
    5.1912   -8.3262    0.0000 C   0  0  0  0  0  0           0  0  0
    3.7247   -5.8727    0.0000 C   0  0  0  0  0  0           0  0  0
    3.0125   -6.2917    0.0000 N   0  0  0  0  0  0           0  0  0
    2.3037   -5.8810    0.0000 C   0  0  0  0  0  0           0  0  0
    0.8736   -5.0541    0.0000 C   0  0  0  0  0  0           0  0  0
    0.8724   -5.8815    0.0000 C   0  0  0  0  0  0           0  0  0
    1.5872   -6.2944    0.0000 C   0  0  0  0  0  0           0  0  0
    2.3008   -5.0505    0.0000 C   0  0  0  0  0  0           0  0  0
    1.5854   -4.6414    0.0000 C   0  0  0  0  0  0           0  0  0
    0.1542   -4.6375    0.0000 O   0  0  0  0  0  0           0  0  0
    0.1542   -6.2875    0.0000 C   0  0  0  0  0  0           0  0  0
    0.1500   -7.1125    0.0000 O   0  0  0  0  0  0           0  0  0
   -0.5625   -5.8750    0.0000 O   0  0  0  0  0  0           0  0  0
 13  8  1  0     0  0
  1  2  2  0     0  0
 11 14  1  0     0  0
 14  7  3  0     0  0
  1  7  1  0     0  0
  9 15  1  0     0  0
  3  4  2  0     0  0
  8  9  2  0     0  0
  4  5  1  0     0  0
 18 19  2  0     0  0
  9 10  1  0     0  0
 19 20  1  0     0  0
 20 17  2  0     0  0
  2  3  1  0     0  0
 17 21  1  0     0  0
 10 11  2  0     0  0
 21 22  2  0     0  0
 22 18  1  0     0  0
  5  6  2  0     0  0
 18 23  1  0     0  0
 11 12  1  0     0  0
 19 24  1  0     0  0
  6  1  1  0     0  0
 24 25  2  0     0  0
 12 13  2  0     0  0
 24 26  1  0     0  0
 17 16  1  0     0  0
 16 15  1  0     0  0
M  END
>  <prID>
812

>  <IDDB>
225344

>  <pIC50_HIV_Integrase>
4.494850022

>  <Q>
0.649791248

>  <Activity_Integrase>
Inactive_Integrase

NA
NA
NA
NA
$$$$

  Accelrys05311914302D 1   1.00000     0.00000     0

 43 48  0     0  0            999 V2000
    3.2171   -2.5490    0.0000 N   0  0  3  0  0  0           0  0  0
    2.3979   -2.5450    0.0000 C   0  0  0  0  0  0           0  0  0
    0.7459   -2.5384    0.0000 C   0  0  0  0  0  0           0  0  0
    1.1562   -3.2569    0.0000 C   0  0  0  0  0  0           0  0  0
    1.9817   -3.2598    0.0000 C   0  0  0  0  0  0           0  0  0
    1.9826   -1.8258    0.0000 C   0  0  0  0  0  0           0  0  0
    1.1584   -1.8264    0.0000 C   0  0  0  0  0  0           0  0  0
   -0.0854   -2.5344    0.0000 O   0  0  0  0  0  0           0  0  0
    0.7348   -3.9662    0.0000 C   0  0  0  0  0  0           0  0  0
    1.1413   -4.6841    0.0000 O   0  0  0  0  0  0           0  0  0
   -0.0921   -3.9645    0.0000 O   0  0  0  0  0  0           0  0  0
   11.2852   -1.8249    0.0000 C   0  0  0  0  0  0           0  0  0
   10.8733   -2.5425    0.0000 C   0  0  0  0  0  0           0  0  0
   11.2887   -3.2558    0.0000 C   0  0  0  0  0  0           0  0  0
   12.1159   -3.2528    0.0000 C   0  0  0  0  0  0           0  0  0
   12.5258   -2.5305    0.0000 C   0  0  0  0  0  0           0  0  0
   12.1080   -1.8201    0.0000 C   0  0  0  0  0  0           0  0  0
    9.5609   -3.2046    0.0000 C   0  0  0  0  0  0           0  0  0
    8.7789   -2.9419    0.0000 C   0  0  0  0  0  0           0  0  0
    8.7851   -2.1168    0.0000 C   0  0  0  0  0  0           0  0  0
    9.5746   -1.8685    0.0000 C   0  0  0  0  0  0           0  0  0
   10.0500   -2.5417    0.0000 N   0  0  3  0  0  0           0  0  0
    8.0635   -3.3547    0.0000 C   0  0  0  0  0  0           0  0  0
    7.3470   -2.9413    0.0000 C   0  0  0  0  0  0           0  0  0
    7.3499   -2.1108    0.0000 C   0  0  0  0  0  0           0  0  0
    8.0653   -1.7017    0.0000 C   0  0  0  0  0  0           0  0  0
    9.7799   -3.9978    0.0000 O   0  0  0  0  0  0           0  0  0
    9.7924   -1.0645    0.0000 O   0  0  0  0  0  0           0  0  0
    3.7099   -3.2088    0.0000 C   0  0  0  0  0  0           0  0  0
    4.4920   -2.9461    0.0000 C   0  0  0  0  0  0           0  0  0
    4.4857   -2.1210    0.0000 C   0  0  0  0  0  0           0  0  0
    3.6963   -1.8727    0.0000 C   0  0  0  0  0  0           0  0  0
    5.2073   -3.3589    0.0000 C   0  0  0  0  0  0           0  0  0
    5.9238   -2.9455    0.0000 C   0  0  0  0  0  0           0  0  0
    5.9209   -2.1150    0.0000 C   0  0  0  0  0  0           0  0  0
    5.2055   -1.7059    0.0000 C   0  0  0  0  0  0           0  0  0
    3.4910   -4.0020    0.0000 O   0  0  0  0  0  0           0  0  0
    3.4785   -1.0687    0.0000 O   0  0  0  0  0  0           0  0  0
    6.6333   -1.6958    0.0000 O   0  0  0  0  0  0           0  0  0
   13.3500   -2.5292    0.0000 O   0  0  0  0  0  0           0  0  0
   12.5208   -3.9625    0.0000 C   0  0  0  0  0  0           0  0  0
   12.1042   -4.6750    0.0000 O   0  0  0  0  0  0           0  0  0
   13.3458   -3.9625    0.0000 O   0  0  0  0  0  0           0  0  0
 21 22  1  0     0  0
 22 18  1  0     0  0
  2  1  1  0     0  0
 19 23  1  0     0  0
 23 24  2  0     0  0
  6  7  2  0     0  0
 24 25  1  0     0  0
 12 13  2  0     0  0
 25 26  2  0     0  0
 26 20  1  0     0  0
  7  3  1  0     0  0
 18 27  2  0     0  0
 13 14  1  0     0  0
 21 28  2  0     0  0
 29 30  1  0     0  0
  4  5  1  0     0  0
 14 15  2  0     0  0
  3  8  1  0     0  0
 15 16  1  0     0  0
 30 31  2  0     0  0
 31 32  1  0     0  0
 32  1  1  0     0  0
  1 29  1  0     0  0
  5  2  2  0     0  0
 30 33  1  0     0  0
 16 17  2  0     0  0
 33 34  2  0     0  0
 17 12  1  0     0  0
 34 35  1  0     0  0
 18 19  1  0     0  0
 35 36  2  0     0  0
 36 31  1  0     0  0
  4  9  1  0     0  0
 29 37  2  0     0  0
  3  4  2  0     0  0
 32 38  2  0     0  0
  9 10  2  0     0  0
 35 39  1  0     0  0
 39 25  1  0     0  0
 22 13  1  0     0  0
  2  6  1  0     0  0
 16 40  1  0     0  0
  9 11  1  0     0  0
 15 41  1  0     0  0
 19 20  2  0     0  0
 41 42  2  0     0  0
 20 21  1  0     0  0
 41 43  1  0     0  0
M  END
>  <prID>
813

>  <IDDB>
225345

>  <pIC50_HIV_Integrase>
4.920818754

>  <Q>
-2.038466654

>  <Activity_Integrase>
Inactive_Integrase

NA
NA
NA
NA
$$$$

  Accelrys05311914302D 1   1.00000     0.00000     0

 33 36  0     0  0            999 V2000
    3.2171   -2.5490    0.0000 N   0  0  3  0  0  0           0  0  0
    2.3979   -2.5450    0.0000 C   0  0  0  0  0  0           0  0  0
    0.7459   -2.5384    0.0000 C   0  0  0  0  0  0           0  0  0
    1.1562   -3.2569    0.0000 C   0  0  0  0  0  0           0  0  0
    1.9817   -3.2598    0.0000 C   0  0  0  0  0  0           0  0  0
    1.9826   -1.8258    0.0000 C   0  0  0  0  0  0           0  0  0
    1.1584   -1.8264    0.0000 C   0  0  0  0  0  0           0  0  0
   -0.0854   -2.5344    0.0000 O   0  0  0  0  0  0           0  0  0
    0.7348   -3.9662    0.0000 C   0  0  0  0  0  0           0  0  0
    1.1413   -4.6841    0.0000 O   0  0  0  0  0  0           0  0  0
   -0.0921   -3.9645    0.0000 O   0  0  0  0  0  0           0  0  0
    9.5193   -3.3046    0.0000 C   0  0  0  0  0  0           0  0  0
    8.7789   -2.9419    0.0000 C   0  0  0  0  0  0           0  0  0
    8.7851   -2.1168    0.0000 C   0  0  0  0  0  0           0  0  0
    8.0635   -3.3547    0.0000 C   0  0  0  0  0  0           0  0  0
    7.3470   -2.9413    0.0000 C   0  0  0  0  0  0           0  0  0
    7.3499   -2.1108    0.0000 C   0  0  0  0  0  0           0  0  0
    8.0653   -1.7017    0.0000 C   0  0  0  0  0  0           0  0  0
    9.5465   -4.1187    0.0000 O   0  0  0  0  0  0           0  0  0
    3.7099   -3.2088    0.0000 C   0  0  0  0  0  0           0  0  0
    4.4920   -2.9461    0.0000 C   0  0  0  0  0  0           0  0  0
    4.4857   -2.1210    0.0000 C   0  0  0  0  0  0           0  0  0
    3.6963   -1.8727    0.0000 C   0  0  0  0  0  0           0  0  0
    5.2073   -3.3589    0.0000 C   0  0  0  0  0  0           0  0  0
    5.9238   -2.9455    0.0000 C   0  0  0  0  0  0           0  0  0
    5.9209   -2.1150    0.0000 C   0  0  0  0  0  0           0  0  0
    5.2055   -1.7059    0.0000 C   0  0  0  0  0  0           0  0  0
    3.4910   -4.0020    0.0000 O   0  0  0  0  0  0           0  0  0
    3.4785   -1.0687    0.0000 O   0  0  0  0  0  0           0  0  0
    6.6333   -1.6958    0.0000 S   0  0  3  0  0  0           0  0  0
    6.6292   -0.8708    0.0000 O   0  0  0  0  0  0           0  0  0
    6.6292   -2.5208    0.0000 O   0  0  0  0  0  0           0  0  0
   10.2292   -2.8875    0.0000 O   0  0  0  0  0  0           0  0  0
 16 17  1  0     0  0
  4  9  1  0     0  0
 17 18  2  0     0  0
 18 14  1  0     0  0
  3  4  2  0     0  0
 12 19  2  0     0  0
 20 21  1  0     0  0
  9 10  2  0     0  0
  2  6  1  0     0  0
  9 11  1  0     0  0
  2  1  1  0     0  0
 21 22  2  0     0  0
 22 23  1  0     0  0
 23  1  1  0     0  0
  1 20  1  0     0  0
 12 13  1  0     0  0
 21 24  1  0     0  0
 24 25  2  0     0  0
  6  7  2  0     0  0
 25 26  1  0     0  0
  7  3  1  0     0  0
 26 27  2  0     0  0
 27 22  1  0     0  0
 13 14  2  0     0  0
 20 28  2  0     0  0
  4  5  1  0     0  0
 23 29  2  0     0  0
 13 15  1  0     0  0
 26 30  1  0     0  0
 30 17  1  0     0  0
  3  8  1  0     0  0
 30 31  2  0     0  0
 15 16  2  0     0  0
 30 32  2  0     0  0
  5  2  2  0     0  0
 12 33  1  0     0  0
M  END
>  <prID>
814

>  <IDDB>
225346

>  <pIC50_HIV_Integrase>
4.356547324

>  <Q>
-1.448266725

>  <Activity_Integrase>
Inactive_Integrase

NA
NA
NA
NA
$$$$

  Accelrys05311914302D 1   1.00000     0.00000     0

 29 32  0     0  0            999 V2000
    8.7381   -4.3701    0.0000 N   0  0  0  0  0  0           0  0  0
    9.6090   -4.6207    0.0000 C   0  0  0  0  0  0           0  0  0
   10.0341   -3.9135    0.0000 C   0  0  0  0  0  0           0  0  0
    9.4901   -3.2898    0.0000 N   0  0  0  0  0  0           0  0  0
    8.7333   -3.6161    0.0000 C   0  0  0  0  0  0           0  0  0
   10.0116   -5.3413    0.0000 C   0  0  0  0  0  0           0  0  0
   10.8387   -5.3530    0.0000 C   0  0  0  0  0  0           0  0  0
   11.2614   -4.6381    0.0000 C   0  0  0  0  0  0           0  0  0
   10.8564   -3.9204    0.0000 C   0  0  0  0  0  0           0  0  0
   11.2373   -6.0687    0.0000 C   0  0  0  0  0  0           0  0  0
    5.9250   -3.6875    0.0000 C   0  0  0  0  0  0           0  0  0
    6.5943   -3.2050    0.0000 C   0  0  0  0  0  0           0  0  0
    6.3375   -2.4167    0.0000 O   0  0  0  0  0  0           0  0  0
    5.5125   -2.4167    0.0000 C   0  0  0  0  0  0           0  0  0
    5.2557   -3.2050    0.0000 C   0  0  0  0  0  0           0  0  0
    4.8014   -2.0056    0.0000 C   0  0  0  0  0  0           0  0  0
    3.3608   -1.1972    0.0000 C   0  0  0  0  0  0           0  0  0
    3.3703   -2.0245    0.0000 C   0  0  0  0  0  0           0  0  0
    4.0904   -2.4281    0.0000 C   0  0  0  0  0  0           0  0  0
    4.7878   -1.1751    0.0000 C   0  0  0  0  0  0           0  0  0
    4.0672   -0.7753    0.0000 C   0  0  0  0  0  0           0  0  0
    2.6360   -0.7899    0.0000 O   0  0  0  0  0  0           0  0  0
    2.6574   -2.4398    0.0000 C   0  0  0  0  0  0           0  0  0
    2.6638   -3.2648    0.0000 O   0  0  0  0  0  0           0  0  0
    1.9354   -2.0366    0.0000 O   0  0  0  0  0  0           0  0  0
    7.3042   -3.6167    0.0000 C   0  0  0  0  0  0           0  0  0
    8.0167   -3.2000    0.0000 C   0  0  0  0  0  0           0  0  0
    8.0167   -2.4625    0.0000 C   0  0  0  0  0  0           0  0  0
    8.0125   -1.7250    0.0000 N   0  0  0  0  0  0           0  0  0
 11 12  2  0     0  0
 13 14  1  0     0  0
 15 11  1  0     0  0
  2  3  2  0     0  0
  7  8  1  0     0  0
  3  4  1  0     0  0
 17 18  2  0     0  0
  8  9  2  0     0  0
 18 19  1  0     0  0
 19 16  2  0     0  0
  9  3  1  0     0  0
 16 20  1  0     0  0
  4  5  1  0     0  0
 20 21  2  0     0  0
 21 17  1  0     0  0
  7 10  1  0     0  0
 17 22  1  0     0  0
 14 15  2  0     0  0
 18 23  1  0     0  0
  5  1  2  0     0  0
 23 24  2  0     0  0
  1  2  1  0     0  0
 23 25  1  0     0  0
 16 14  1  0     0  0
 12 13  1  0     0  0
 12 26  1  0     0  0
  2  6  1  0     0  0
 26 27  2  0     0  0
 27 28  1  0     0  0
  6  7  2  0     0  0
 28 29  3  0     0  0
 27  5  1  0     0  0
M  END
>  <prID>
815

>  <IDDB>
225347

>  <pIC50_HIV_Integrase>
5.096910013

>  <Q>
-1.015615262

>  <Activity_Integrase>
Inactive_Integrase

NA
NA
NA
NA
$$$$

  Accelrys05311914302D 1   1.00000     0.00000     0

 25 27  0     0  0            999 V2000
    7.6486   -1.1708    0.0000 C   0  0  0  0  0  0           0  0  0
    7.6474   -1.9982    0.0000 C   0  0  0  0  0  0           0  0  0
    8.3622   -2.4110    0.0000 C   0  0  0  0  0  0           0  0  0
    9.0787   -1.9977    0.0000 C   0  0  0  0  0  0           0  0  0
    9.0758   -1.1672    0.0000 C   0  0  0  0  0  0           0  0  0
    8.3604   -0.7580    0.0000 C   0  0  0  0  0  0           0  0  0
    5.5125   -2.4167    0.0000 N   0  0  3  0  0  0           0  0  0
    5.5125   -3.2417    0.0000 C   0  0  0  0  0  0           0  0  0
    6.2245   -3.6500    0.0000 N   0  0  0  0  0  0           0  0  0
    6.9365   -3.2417    0.0000 C   0  0  0  0  0  0           0  0  0
    6.9365   -2.4167    0.0000 C   0  0  0  0  0  0           0  0  0
    6.2245   -2.0000    0.0000 C   0  0  0  0  0  0           0  0  0
    4.8014   -2.0056    0.0000 C   0  0  0  0  0  0           0  0  0
    3.3608   -1.1972    0.0000 C   0  0  0  0  0  0           0  0  0
    3.3703   -2.0245    0.0000 C   0  0  0  0  0  0           0  0  0
    4.0904   -2.4281    0.0000 C   0  0  0  0  0  0           0  0  0
    4.7878   -1.1751    0.0000 C   0  0  0  0  0  0           0  0  0
    4.0672   -0.7753    0.0000 C   0  0  0  0  0  0           0  0  0
    2.6360   -0.7899    0.0000 O   0  0  0  0  0  0           0  0  0
    2.6574   -2.4398    0.0000 C   0  0  0  0  0  0           0  0  0
    2.6638   -3.2648    0.0000 O   0  0  0  0  0  0           0  0  0
    1.9354   -2.0366    0.0000 O   0  0  0  0  0  0           0  0  0
    7.6458   -3.6542    0.0000 O   0  0  0  0  0  0           0  0  0
    4.7958   -3.6500    0.0000 C   0  0  0  0  0  0           0  0  0
    6.2167   -1.1750    0.0000 C   0  0  0  0  0  0           0  0  0
  6  1  1  0     0  0
  7  8  1  0     0  0
  1  2  2  0     0  0
 14 15  2  0     0  0
  3  4  2  0     0  0
 15 16  1  0     0  0
 16 13  2  0     0  0
 13 17  1  0     0  0
  4  5  1  0     0  0
 17 18  2  0     0  0
 18 14  1  0     0  0
  2  3  1  0     0  0
 14 19  1  0     0  0
  5  6  2  0     0  0
 15 20  1  0     0  0
  7 12  1  0     0  0
 20 21  2  0     0  0
  8  9  2  0     0  0
 20 22  1  0     0  0
 13  7  1  0     0  0
 11  2  1  0     0  0
  9 10  1  0     0  0
 10 23  2  0     0  0
 10 11  1  0     0  0
  8 24  1  0     0  0
 11 12  2  0     0  0
 12 25  1  0     0  0
M  END
>  <prID>
816

>  <IDDB>
225348

>  <pIC50_HIV_Integrase>
4.13667714

>  <Q>
-1.155971946

>  <Activity_Integrase>
Inactive_Integrase

NA
NA
NA
NA
$$$$

  Accelrys05311914302D 1   1.00000     0.00000     0

 29 30  0     0  0            999 V2000
    5.1925   -2.4588    0.0000 C   0  0  0  0  0  0           0  0  0
    5.9050   -2.0463    0.0000 C   0  0  0  0  0  0           0  0  0
    6.6175   -2.4588    0.0000 C   0  0  0  0  0  0           0  0  0
    7.3300   -2.0463    0.0000 C   0  0  0  0  0  0           0  0  0
    8.0425   -2.4588    0.0000 O   0  0  0  0  0  0           0  0  0
    3.7652   -2.4625    0.0000 C   0  0  0  0  0  0           0  0  0
    3.7641   -3.2898    0.0000 C   0  0  0  0  0  0           0  0  0
    4.4789   -3.7027    0.0000 C   0  0  0  0  0  0           0  0  0
    5.1953   -3.2894    0.0000 C   0  0  0  0  0  0           0  0  0
    4.4771   -2.0497    0.0000 C   0  0  0  0  0  0           0  0  0
    2.3458   -2.4625    0.0000 N   0  0  0  0  0  0           0  0  0
    3.0579   -2.0458    0.0000 S   0  0  3  0  0  0           0  0  0
    1.6473   -1.2153    0.0000 C   0  0  0  0  0  0           0  0  0
    0.2066   -2.0236    0.0000 C   0  0  0  0  0  0           0  0  0
    0.2161   -1.1963    0.0000 C   0  0  0  0  0  0           0  0  0
    0.9362   -0.7927    0.0000 C   0  0  0  0  0  0           0  0  0
    1.6337   -2.0457    0.0000 C   0  0  0  0  0  0           0  0  0
    0.9131   -2.4456    0.0000 C   0  0  0  0  0  0           0  0  0
   -0.5181   -2.4309    0.0000 O   0  0  0  0  0  0           0  0  0
   -0.4968   -0.7811    0.0000 C   0  0  0  0  0  0           0  0  0
   -0.4903    0.0439    0.0000 O   0  0  0  0  0  0           0  0  0
   -1.2188   -1.1843    0.0000 O   0  0  0  0  0  0           0  0  0
    3.0500   -1.2208    0.0000 O   0  0  0  0  0  0           0  0  0
    3.0500   -2.8708    0.0000 O   0  0  0  0  0  0           0  0  0
    4.4708   -4.5250    0.0000 O   0  0  0  0  0  0           0  0  0
    3.7542   -4.9333    0.0000 C   0  0  0  0  0  0           0  0  0
    5.9042   -3.7000    0.0000 O   0  0  0  0  0  0           0  0  0
    6.6167   -3.2833    0.0000 C   0  0  0  0  0  0           0  0  0
    7.3250   -1.2208    0.0000 O   0  0  0  0  0  0           0  0  0
 15 16  1  0     0  0
 16 13  2  0     0  0
  8  9  2  0     0  0
 13 17  1  0     0  0
  9  1  1  0     0  0
 17 18  2  0     0  0
 18 14  1  0     0  0
  4  5  1  0     0  0
 14 19  1  0     0  0
  1 10  2  0     0  0
 15 20  1  0     0  0
 10  6  1  0     0  0
 20 21  2  0     0  0
  2  3  2  0     0  0
 20 22  1  0     0  0
 17 11  1  0     0  0
 12  6  1  0     0  0
  1  2  1  0     0  0
 12 23  2  0     0  0
 11 12  1  0     0  0
 12 24  2  0     0  0
  6  7  2  0     0  0
  8 25  1  0     0  0
  3  4  1  0     0  0
 25 26  1  0     0  0
  7  8  1  0     0  0
  9 27  1  0     0  0
 14 15  2  0     0  0
 27 28  1  0     0  0
  4 29  2  0     0  0
M  END
>  <prID>
817

>  <IDDB>
225350

>  <pIC50_HIV_Integrase>
4.124938737

>  <Q>
-2.87933301

>  <Activity_Integrase>
Inactive_Integrase

NA
NA
NA
NA
$$$$

  Accelrys05311914302D 1   1.00000     0.00000     0

 27 28  0     0  0            999 V2000
    7.8798   -1.2662    0.0000 C   0  0  0  0  0  0           0  0  0
    7.8787   -2.0935    0.0000 C   0  0  0  0  0  0           0  0  0
    8.5935   -2.5064    0.0000 C   0  0  0  0  0  0           0  0  0
    9.3099   -2.0930    0.0000 C   0  0  0  0  0  0           0  0  0
    9.3071   -1.2625    0.0000 C   0  0  0  0  0  0           0  0  0
    8.5917   -0.8534    0.0000 C   0  0  0  0  0  0           0  0  0
    2.1787   -2.1102    0.0000 C   0  0  0  0  0  0           0  0  0
    2.8912   -2.5185    0.0000 C   0  0  0  0  0  0           0  0  0
    3.6037   -2.1060    0.0000 N   0  0  0  0  0  0           0  0  0
    4.3162   -2.5144    0.0000 N   0  0  0  0  0  0           0  0  0
    5.0287   -2.1019    0.0000 C   0  0  0  0  0  0           0  0  0
    5.7412   -2.5102    0.0000 C   0  0  0  0  0  0           0  0  0
    6.4537   -2.0977    0.0000 C   0  0  0  0  0  0           0  0  0
    7.1662   -2.5060    0.0000 N   0  0  0  0  0  0           0  0  0
    0.7486   -1.2833    0.0000 C   0  0  0  0  0  0           0  0  0
    0.7474   -2.1107    0.0000 C   0  0  0  0  0  0           0  0  0
    1.4622   -2.5235    0.0000 C   0  0  0  0  0  0           0  0  0
    2.1758   -1.2797    0.0000 C   0  0  0  0  0  0           0  0  0
    1.4604   -0.8705    0.0000 C   0  0  0  0  0  0           0  0  0
    0.0292   -0.8667    0.0000 O   0  0  0  0  0  0           0  0  0
    1.4542   -3.3458    0.0000 O   0  0  0  0  0  0           0  0  0
    2.8833   -3.3417    0.0000 O   0  0  0  0  0  0           0  0  0
    5.0208   -1.2750    0.0000 C   0  0  0  0  0  0           0  0  0
    6.4458   -1.2708    0.0000 O   0  0  0  0  0  0           0  0  0
    8.5875   -3.3292    0.0000 C   0  0  0  0  0  0           0  0  0
   10.0167   -0.8458    0.0000 C   0  0  0  0  0  0           0  0  0
    7.1625   -0.8500    0.0000 C   0  0  0  0  0  0           0  0  0
 13 14  1  0     0  0
 14  2  1  0     0  0
  3  4  2  0     0  0
  7  8  1  0     0  0
 15 16  2  0     0  0
 16 17  1  0     0  0
 17  7  2  0     0  0
  8  9  1  0     0  0
  7 18  1  0     0  0
  4  5  1  0     0  0
 18 19  2  0     0  0
 19 15  1  0     0  0
  9 10  1  0     0  0
 15 20  1  0     0  0
  2  3  1  0     0  0
 17 21  1  0     0  0
 10 11  2  0     0  0
  8 22  2  0     0  0
  5  6  2  0     0  0
 11 23  1  0     0  0
 11 12  1  0     0  0
 13 24  2  0     0  0
  6  1  1  0     0  0
  3 25  1  0     0  0
 12 13  1  0     0  0
  5 26  1  0     0  0
  1  2  2  0     0  0
  1 27  1  0     0  0
M  END
>  <prID>
818

>  <IDDB>
226954

>  <pIC50_HIV_Integrase>
3.823908741

>  <Q>
-3.325462575

>  <Activity_Integrase>
Inactive_Integrase

NA
NA
NA
NA
$$$$

  Accelrys05311914302D 1   1.00000     0.00000     0

 35 37  0     0  0            999 V2000
    6.8986   -2.4083    0.0000 C   0  0  0  0  0  0           0  0  0
    6.8974   -3.2357    0.0000 C   0  0  0  0  0  0           0  0  0
    7.6122   -3.6485    0.0000 C   0  0  0  0  0  0           0  0  0
    8.3287   -3.2352    0.0000 C   0  0  0  0  0  0           0  0  0
    8.3258   -2.4047    0.0000 C   0  0  0  0  0  0           0  0  0
    7.6104   -1.9955    0.0000 C   0  0  0  0  0  0           0  0  0
    3.3361   -3.6583    0.0000 C   0  0  0  0  0  0           0  0  0
    3.3349   -4.4857    0.0000 C   0  0  0  0  0  0           0  0  0
    4.0497   -4.8985    0.0000 C   0  0  0  0  0  0           0  0  0
    4.7662   -4.4852    0.0000 C   0  0  0  0  0  0           0  0  0
    4.7633   -3.6547    0.0000 C   0  0  0  0  0  0           0  0  0
    4.0479   -3.2455    0.0000 C   0  0  0  0  0  0           0  0  0
   -1.6500   -4.9000    0.0000 C   0  0  0  0  0  0           0  0  0
   -1.6500   -5.7250    0.0000 O   0  0  0  0  0  0           0  0  0
   -0.9380   -6.1333    0.0000 C   0  0  0  0  0  0           0  0  0
   -0.2260   -5.7250    0.0000 C   0  0  0  0  0  0           0  0  0
   -0.2260   -4.9000    0.0000 N   0  0  3  0  0  0           0  0  0
   -0.9380   -4.4833    0.0000 C   0  0  0  0  0  0           0  0  0
    0.4875   -4.4875    0.0000 C   0  0  0  0  0  0           0  0  0
    1.2000   -4.9000    0.0000 C   0  0  0  0  0  0           0  0  0
    1.9125   -4.4875    0.0000 C   0  0  0  0  0  0           0  0  0
    2.6250   -4.9000    0.0000 N   0  0  0  0  0  0           0  0  0
    4.0417   -5.7208    0.0000 N   0  3  0  0  0  0           0  0  0
    3.3250   -6.1292    0.0000 O   0  5  0  0  0  0           0  0  0
    4.7542   -6.1333    0.0000 O   0  0  0  0  0  0           0  0  0
    5.4750   -3.2375    0.0000 S   0  0  3  0  0  0           0  0  0
    6.1875   -3.6500    0.0000 N   0  0  0  0  0  0           0  0  0
    4.7583   -2.8250    0.0000 O   0  0  0  0  0  0           0  0  0
    6.1875   -2.8208    0.0000 O   0  0  0  0  0  0           0  0  0
    9.0375   -3.6458    0.0000 C   0  0  0  0  0  0           0  0  0
    9.7500   -3.2292    0.0000 O   0  0  0  0  0  0           0  0  0
    9.0333   -4.4708    0.0000 O   0  0  0  0  0  0           0  0  0
    7.6042   -1.1667    0.0000 C   0  0  0  0  0  0           0  0  0
    6.8875   -0.7542    0.0000 O   0  0  0  0  0  0           0  0  0
    8.3167   -0.7500    0.0000 O   0  0  0  0  0  0           0  0  0
 16 17  1  0     0  0
 17 18  1  0     0  0
  4  5  1  0     0  0
 17 19  1  0     0  0
  9 10  2  0     0  0
 19 20  1  0     0  0
  2  3  1  0     0  0
 20 21  1  0     0  0
 10 11  1  0     0  0
 21 22  1  0     0  0
 22  8  1  0     0  0
  5  6  2  0     0  0
  9 23  1  0     0  0
 11 12  2  0     0  0
 23 24  1  0     0  0
 12  7  1  0     0  0
 23 25  2  0     0  0
 13 14  1  0     0  0
 11 26  1  0     0  0
  6  1  1  0     0  0
 26 27  1  0     0  0
 27  2  1  0     0  0
  1  2  2  0     0  0
 26 28  2  0     0  0
  3  4  2  0     0  0
 26 29  2  0     0  0
  7  8  2  0     0  0
  4 30  1  0     0  0
 30 31  1  0     0  0
  8  9  1  0     0  0
 30 32  2  0     0  0
 13 18  1  0     0  0
  6 33  1  0     0  0
 14 15  1  0     0  0
 33 34  2  0     0  0
 15 16  1  0     0  0
 33 35  1  0     0  0
M  CHG  2  23   1  24  -1
M  END
>  <prID>
819

>  <IDDB>
226958

>  <pIC50_HIV_Integrase>
4

>  <Q>
-4.114919146

>  <Activity_Integrase>
Inactive_Integrase

NA
NA
NA
NA
$$$$

  Accelrys05311914302D 1   1.00000     0.00000     0

 33 36  0     0  0            999 V2000
    4.8708   -3.1834    0.0000 C   0  0  0  0  0  0           0  0  0
    5.6958   -3.1834    0.0000 C   0  0  0  0  0  0           0  0  0
    5.9526   -2.3992    0.0000 C   0  0  0  0  0  0           0  0  0
    5.2833   -1.9125    0.0000 O   0  0  0  0  0  0           0  0  0
    4.6183   -2.3992    0.0000 C   0  0  0  0  0  0           0  0  0
    1.7667   -2.4083    0.0000 O   0  0  0  0  0  0           0  0  0
    2.4792   -1.9958    0.0000 C   0  0  0  0  0  0           0  0  0
    3.1917   -2.4042    0.0000 N   0  0  0  0  0  0           0  0  0
    3.9042   -1.9917    0.0000 C   0  0  0  0  0  0           0  0  0
    6.3041   -0.7167    0.0000 C   0  0  0  0  0  0           0  0  0
    7.1291   -0.7167    0.0000 C   0  0  0  0  0  0           0  0  0
    7.3859    0.0674    0.0000 C   0  0  0  0  0  0           0  0  0
    6.7166    0.5542    0.0000 O   0  0  0  0  0  0           0  0  0
    6.0516    0.0674    0.0000 C   0  0  0  0  0  0           0  0  0
    3.2008    0.0703    0.0000 C   0  0  0  0  0  0           0  0  0
    3.9133    0.4828    0.0000 C   0  0  0  0  0  0           0  0  0
    4.6258    0.0703    0.0000 N   0  0  0  0  0  0           0  0  0
    5.3383    0.4828    0.0000 C   0  0  0  0  0  0           0  0  0
    1.7736    0.0667    0.0000 C   0  0  0  0  0  0           0  0  0
    1.7724   -0.7607    0.0000 C   0  0  0  0  0  0           0  0  0
    2.4872   -1.1735    0.0000 C   0  0  0  0  0  0           0  0  0
    3.2037   -0.7602    0.0000 C   0  0  0  0  0  0           0  0  0
    2.4854    0.4795    0.0000 C   0  0  0  0  0  0           0  0  0
   -1.0724    0.0674    0.0000 C   0  0  0  0  0  0           0  0  0
   -0.3599    0.4799    0.0000 C   0  0  0  0  0  0           0  0  0
    0.3526    0.0674    0.0000 N   0  0  0  0  0  0           0  0  0
    1.0651    0.4799    0.0000 C   0  0  0  0  0  0           0  0  0
   -2.1542   -0.7167    0.0000 C   0  0  0  0  0  0           0  0  0
   -1.3292   -0.7167    0.0000 O   0  0  0  0  0  0           0  0  0
   -1.7417    0.5542    0.0000 C   0  0  0  0  0  0           0  0  0
   -2.4067    0.0674    0.0000 C   0  0  0  0  0  0           0  0  0
    1.0583    1.3083    0.0000 O   0  0  0  0  0  0           0  0  0
    3.9083    1.3083    0.0000 O   0  0  0  0  0  0           0  0  0
 16 17  1  0     0  0
  8  9  1  0     0  0
 17 18  1  0     0  0
 18 14  1  0     0  0
  9  5  1  0     0  0
 10 11  1  0     0  0
 19 20  2  0     0  0
  4  5  1  0     0  0
 20 21  1  0     0  0
  5  1  2  0     0  0
 21 22  2  0     0  0
 22 15  1  0     0  0
  1  2  1  0     0  0
 15 23  2  0     0  0
 23 19  1  0     0  0
  6  7  2  0     0  0
 24 25  1  0     0  0
 11 12  2  0     0  0
 25 26  1  0     0  0
 12 13  1  0     0  0
 26 27  1  0     0  0
 27 19  1  0     0  0
 28 29  1  0     0  0
 13 14  1  0     0  0
 14 10  2  0     0  0
  2  3  2  0     0  0
  7  8  1  0     0  0
 29 24  1  0     0  0
 24 30  2  0     0  0
 30 31  1  0     0  0
 31 28  2  0     0  0
 21  7  1  0     0  0
 15 16  1  0     0  0
 27 32  2  0     0  0
  3  4  1  0     0  0
 16 33  2  0     0  0
M  END
>  <prID>
820

>  <IDDB>
226959

>  <pIC50_HIV_Integrase>
5.096910013

>  <Q>
-1.581373784

>  <Activity_Integrase>
Inactive_Integrase

NA
NA
NA
NA
$$$$

  Accelrys05311914302D 1   1.00000     0.00000     0

 21 23  0     0  0            999 V2000
    0.7102    0.1273    0.0000 C   0  0  0  0  0  0           0  0  0
    1.3737    0.6177    0.0000 C   0  0  0  0  0  0           0  0  0
    1.4676   -0.2035    0.0000 C   0  0  3  0  0  0           0  0  0
    3.0542   -1.6422    0.0000 C   0  0  0  0  0  0           0  0  0
    1.9647   -0.8620    0.0000 C   0  0  0  0  0  0           0  0  0
    1.7124   -1.6537    0.0000 N   0  0  0  0  0  0           0  0  0
    2.3874   -2.1350    0.0000 N   0  0  0  0  0  0           0  0  0
    2.7922   -0.8556    0.0000 C   0  0  0  0  0  0           0  0  0
    6.6236   -2.0625    0.0000 C   0  0  0  0  0  0           0  0  0
    6.6224   -2.8898    0.0000 C   0  0  0  0  0  0           0  0  0
    7.3372   -3.3027    0.0000 C   0  0  0  0  0  0           0  0  0
    8.0537   -2.8894    0.0000 C   0  0  0  0  0  0           0  0  0
    8.0508   -2.0588    0.0000 C   0  0  0  0  0  0           0  0  0
    7.3354   -1.6497    0.0000 C   0  0  0  0  0  0           0  0  0
    3.7750   -2.0584    0.0000 C   0  0  0  0  0  0           0  0  0
    4.4875   -1.6459    0.0000 N   0  0  0  0  0  0           0  0  0
    5.2000   -2.0584    0.0000 N   0  0  0  0  0  0           0  0  0
    5.9125   -1.6459    0.0000 C   0  0  0  0  0  0           0  0  0
    3.7667   -2.8833    0.0000 O   0  0  0  0  0  0           0  0  0
    5.9042   -3.2958    0.0000 O   0  0  0  0  0  0           0  0  0
    8.7625   -3.3000    0.0000 O   0  0  0  0  0  0           0  0  0
  2  1  1  0     0  0
 10 11  1  0     0  0
  3  2  1  0     0  0
 11 12  2  0     0  0
  1  3  1  0     0  0
 12 13  1  0     0  0
  5  6  2  0     0  0
 13 14  2  0     0  0
 14  9  1  0     0  0
  7  4  1  0     0  0
  4  8  2  0     0  0
 15 16  1  0     0  0
  8  5  1  0     0  0
 16 17  1  0     0  0
  5  3  1  0     0  0
 17 18  2  0     0  0
 18  9  1  0     0  0
  6  7  1  0     0  0
 15 19  2  0     0  0
 10 20  1  0     0  0
  9 10  2  0     0  0
 12 21  1  0     0  0
 15  4  1  0     0  0
M  END
>  <prID>
821

>  <IDDB>
226960

>  <pIC50_HIV_Integrase>
4.366531544

>  <Q>
-3.476286055

>  <Activity_Integrase>
Inactive_Integrase

NA
NA
NA
NA
$$$$

  Accelrys05311914302D 1   1.00000     0.00000     0

 32 34  0     0  0            999 V2000
   11.3416   -1.7875    0.0000 O   0  0  0  0  0  0           0  0  0
   12.1666   -1.7875    0.0000 C   0  0  0  0  0  0           0  0  0
   12.4234   -2.5716    0.0000 C   0  0  0  0  0  0           0  0  0
   11.7541   -3.0583    0.0000 C   0  0  0  0  0  0           0  0  0
   11.0891   -2.5716    0.0000 C   0  0  0  0  0  0           0  0  0
    6.1050   -2.9963    0.0000 C   0  0  0  0  0  0           0  0  0
    6.8175   -2.5838    0.0000 C   0  0  0  0  0  0           0  0  0
    7.5300   -2.9922    0.0000 N   0  0  0  0  0  0           0  0  0
    8.2425   -2.5797    0.0000 C   0  0  0  0  0  0           0  0  0
    8.9550   -2.9880    0.0000 C   0  0  0  0  0  0           0  0  0
    9.6675   -2.5755    0.0000 N   0  0  0  0  0  0           0  0  0
   10.3800   -2.9838    0.0000 C   0  0  0  0  0  0           0  0  0
   -1.3917   -1.8166    0.0000 C   0  0  0  0  0  0           0  0  0
   -0.5667   -1.8166    0.0000 C   0  0  0  0  0  0           0  0  0
   -0.3099   -2.6008    0.0000 C   0  0  0  0  0  0           0  0  0
   -0.9792   -3.0875    0.0000 O   0  0  0  0  0  0           0  0  0
   -1.6442   -2.6008    0.0000 C   0  0  0  0  0  0           0  0  0
    0.4027   -3.0125    0.0000 C   0  0  0  0  0  0           0  0  0
    1.1152   -2.6000    0.0000 N   0  0  0  0  0  0           0  0  0
    1.8277   -3.0083    0.0000 C   0  0  0  0  0  0           0  0  0
    2.5402   -2.5958    0.0000 C   0  0  0  0  0  0           0  0  0
    3.2527   -3.0041    0.0000 N   0  0  0  0  0  0           0  0  0
    3.9652   -2.5916    0.0000 C   0  0  0  0  0  0           0  0  0
    4.6777   -3.0000    0.0000 C   0  0  0  0  0  0           0  0  0
    4.6766   -3.8273    0.0000 C   0  0  0  0  0  0           0  0  0
    5.3914   -4.2402    0.0000 C   0  0  0  0  0  0           0  0  0
    6.1078   -3.8269    0.0000 C   0  0  0  0  0  0           0  0  0
    5.3896   -2.5872    0.0000 C   0  0  0  0  0  0           0  0  0
    2.5333   -1.7667    0.0000 O   0  0  0  0  0  0           0  0  0
    1.8208   -3.8292    0.0000 O   0  0  0  0  0  0           0  0  0
    8.2375   -1.7542    0.0000 O   0  0  0  0  0  0           0  0  0
    8.9500   -3.8125    0.0000 O   0  0  0  0  0  0           0  0  0
 15 16  1  0     0  0
 16 17  1  0     0  0
 17 13  2  0     0  0
  8  9  1  0     0  0
 15 18  1  0     0  0
  4  5  2  0     0  0
 18 19  1  0     0  0
  9 10  1  0     0  0
 19 20  1  0     0  0
  5  1  1  0     0  0
 20 21  1  0     0  0
 10 11  1  0     0  0
 21 22  1  0     0  0
  1  2  1  0     0  0
 22 23  1  0     0  0
 11 12  1  0     0  0
 23 24  1  0     0  0
 12  5  1  0     0  0
 24 25  2  0     0  0
 13 14  1  0     0  0
 25 26  1  0     0  0
 26 27  2  0     0  0
 27  6  1  0     0  0
  6  7  1  0     0  0
  6 28  2  0     0  0
 28 24  1  0     0  0
  2  3  2  0     0  0
 21 29  2  0     0  0
  7  8  1  0     0  0
 20 30  2  0     0  0
  3  4  1  0     0  0
  9 31  2  0     0  0
 14 15  2  0     0  0
 10 32  2  0     0  0
M  END
>  <prID>
822

>  <IDDB>
226961

>  <pIC50_HIV_Integrase>
4.397940009

>  <Q>
-2.637809384

>  <Activity_Integrase>
Inactive_Integrase

NA
NA
NA
NA
$$$$

  Accelrys05311914302D 1   1.00000     0.00000     0

 31 33  0     0  0            999 V2000
   10.8861   -3.1541    0.0000 C   0  0  0  0  0  0           0  0  0
   10.8849   -3.9815    0.0000 C   0  0  0  0  0  0           0  0  0
   11.5997   -4.3944    0.0000 C   0  0  0  0  0  0           0  0  0
   12.3162   -3.9810    0.0000 C   0  0  0  0  0  0           0  0  0
   12.3133   -3.1505    0.0000 C   0  0  0  0  0  0           0  0  0
   11.5979   -2.7414    0.0000 C   0  0  0  0  0  0           0  0  0
    7.3109   -4.3675    0.0000 C   0  0  0  0  0  0           0  0  0
    8.0317   -3.9716    0.0000 N   0  0  0  0  0  0           0  0  0
    8.7442   -4.3841    0.0000 C   0  0  0  0  0  0           0  0  0
    9.4567   -3.9758    0.0000 C   0  0  0  0  0  0           0  0  0
   10.1692   -4.3883    0.0000 N   0  0  0  0  0  0           0  0  0
    8.7390   -5.2091    0.0000 O   0  0  0  0  0  0           0  0  0
    9.4515   -3.1508    0.0000 O   0  0  0  0  0  0           0  0  0
    6.5942   -3.9550    0.0000 C   0  0  0  0  0  0           0  0  0
    6.8510   -3.1667    0.0000 C   0  0  0  0  0  0           0  0  0
    6.1817   -2.6799    0.0000 C   0  0  0  0  0  0           0  0  0
    5.5083   -3.1667    0.0000 C   0  0  0  0  0  0           0  0  0
    5.7650   -3.9550    0.0000 O   0  0  0  0  0  0           0  0  0
    3.4166   -2.6875    0.0000 C   0  0  0  0  0  0           0  0  0
    2.7433   -3.1742    0.0000 C   0  0  0  0  0  0           0  0  0
    3.0000   -3.9625    0.0000 C   0  0  0  0  0  0           0  0  0
    3.8291   -3.9625    0.0000 N   0  0  0  0  0  0           0  0  0
    4.0859   -3.1742    0.0000 C   0  0  0  0  0  0           0  0  0
    0.6042   -2.7708    0.0000 C   0  0  0  0  0  0           0  0  0
    1.3167   -3.1792    0.0000 O   0  0  0  0  0  0           0  0  0
    2.0292   -2.7667    0.0000 C   0  0  0  0  0  0           0  0  0
    2.0250   -1.9417    0.0000 O   0  0  0  0  0  0           0  0  0
    3.4083   -1.8625    0.0000 O   0  0  0  0  0  0           0  0  0
    2.2792   -4.3708    0.0000 C   0  0  0  0  0  0           0  0  0
    4.7958   -2.7542    0.0000 C   0  0  0  0  0  0           0  0  0
   13.0250   -2.7333    0.0000 C   0  0  0  0  0  0           0  0  0
  7  8  1  0     0  0
  8  9  1  0     0  0
 16 17  2  0     0  0
 18 14  1  0     0  0
 14 15  2  0     0  0
 15 16  1  0     0  0
 20 21  2  0     0  0
  4  5  1  0     0  0
  9 10  1  0     0  0
  2  3  1  0     0  0
 10 11  1  0     0  0
 11  2  1  0     0  0
 19 20  1  0     0  0
 21 22  1  0     0  0
 22 23  1  0     0  0
 23 19  1  0     0  0
  5  6  2  0     0  0
  9 12  2  0     0  0
 24 25  1  0     0  0
  6  1  1  0     0  0
 25 26  1  0     0  0
 26 20  1  0     0  0
 10 13  2  0     0  0
 26 27  2  0     0  0
  1  2  2  0     0  0
 19 28  2  0     0  0
  7 14  1  0     0  0
 21 29  1  0     0  0
  3  4  2  0     0  0
 23 30  2  0     0  0
 30 17  1  0     0  0
 17 18  1  0     0  0
  5 31  1  0     0  0
M  END
>  <prID>
823

>  <IDDB>
226966

>  <pIC50_HIV_Integrase>
4.091514981

>  <Q>
-2.447292399

>  <Activity_Integrase>
Inactive_Integrase

NA
NA
NA
NA
$$$$

  Accelrys05311914302D 1   1.00000     0.00000     0

 30 32  0     0  0            999 V2000
    9.9041   -3.0834    0.0000 C   0  0  0  0  0  0           0  0  0
   10.7291   -3.0834    0.0000 C   0  0  0  0  0  0           0  0  0
   10.9859   -2.2992    0.0000 S   0  0  0  0  0  0           0  0  0
   10.3166   -1.8125    0.0000 C   0  0  0  0  0  0           0  0  0
    9.6516   -2.2992    0.0000 C   0  0  0  0  0  0           0  0  0
    7.5162   -1.8894    0.0000 C   0  0  0  0  0  0           0  0  0
    8.2287   -2.3019    0.0000 C   0  0  0  0  0  0           0  0  0
    8.9412   -1.8894    0.0000 N   0  0  0  0  0  0           0  0  0
    1.4435   -2.0327    0.0000 C   0  0  0  0  0  0           0  0  0
    1.8735   -1.3306    0.0000 O   0  0  0  0  0  0           0  0  0
    2.6944   -1.3502    0.0000 C   0  0  0  0  0  0           0  0  0
    3.1244   -0.6480    0.0000 C   0  0  0  0  0  0           0  0  0
    2.8666    0.1348    0.0000 S   0  0  0  0  0  0           0  0  0
    3.5332    0.6209    0.0000 C   0  0  0  0  0  0           0  0  0
    4.2027    0.1387    0.0000 C   0  0  0  0  0  0           0  0  0
    3.9488   -0.6489    0.0000 C   0  0  0  0  0  0           0  0  0
    3.0840   -2.0813    0.0000 O   0  0  0  0  0  0           0  0  0
    4.6611   -1.0583    0.0000 N   0  0  0  0  0  0           0  0  0
    5.3736   -0.6500    0.0000 C   0  0  0  0  0  0           0  0  0
    6.0861   -1.0625    0.0000 C   0  0  0  0  0  0           0  0  0
    6.0849   -1.8898    0.0000 C   0  0  0  0  0  0           0  0  0
    6.7997   -2.3027    0.0000 C   0  0  0  0  0  0           0  0  0
    7.5133   -1.0588    0.0000 C   0  0  0  0  0  0           0  0  0
    6.7979   -0.6497    0.0000 C   0  0  0  0  0  0           0  0  0
    5.3667    0.1792    0.0000 O   0  0  0  0  0  0           0  0  0
    8.2208   -3.1250    0.0000 O   0  0  0  0  0  0           0  0  0
   10.3083   -0.9875    0.0000 C   0  0  0  0  0  0           0  0  0
   11.0208   -0.5708    0.0000 O   0  0  0  0  0  0           0  0  0
   11.7000   -0.9958    0.0000 C   0  0  0  0  0  0           0  0  0
    9.5917   -0.5750    0.0000 O   0  0  0  0  0  0           0  0  0
 15 16  1  0     0  0
 16 12  2  0     0  0
 12 13  1  0     0  0
  8  5  1  0     0  0
 11 17  2  0     0  0
  3  4  1  0     0  0
 16 18  1  0     0  0
  4  5  2  0     0  0
 18 19  1  0     0  0
  9 10  1  0     0  0
 19 20  1  0     0  0
  5  1  1  0     0  0
 20 21  2  0     0  0
 10 11  1  0     0  0
 21 22  1  0     0  0
 22  6  2  0     0  0
  1  2  2  0     0  0
  6 23  1  0     0  0
 11 12  1  0     0  0
 23 24  2  0     0  0
 24 20  1  0     0  0
 13 14  1  0     0  0
 19 25  2  0     0  0
  7 26  2  0     0  0
  6  7  1  0     0  0
  4 27  1  0     0  0
  2  3  1  0     0  0
 27 28  1  0     0  0
  7  8  1  0     0  0
 28 29  1  0     0  0
 14 15  2  0     0  0
 27 30  2  0     0  0
M  END
>  <prID>
824

>  <IDDB>
226967

>  <pIC50_HIV_Integrase>
4.013228266

>  <Q>
0.996742177

>  <Activity_Integrase>
Inactive_Integrase

NA
NA
NA
NA
$$$$

  Accelrys05311914302D 1   1.00000     0.00000     0

 33 35  0     0  0            999 V2000
    9.9777   -2.4291    0.0000 C   0  0  0  0  0  0           0  0  0
    9.9766   -3.2565    0.0000 C   0  0  0  0  0  0           0  0  0
   10.6914   -3.6694    0.0000 C   0  0  0  0  0  0           0  0  0
   11.4078   -3.2560    0.0000 C   0  0  0  0  0  0           0  0  0
   11.4050   -2.4255    0.0000 C   0  0  0  0  0  0           0  0  0
   10.6896   -2.0164    0.0000 C   0  0  0  0  0  0           0  0  0
    7.8412   -2.0269    0.0000 C   0  0  0  0  0  0           0  0  0
    8.5537   -2.4352    0.0000 N   0  0  0  0  0  0           0  0  0
    9.2662   -2.0227    0.0000 C   0  0  0  0  0  0           0  0  0
    6.4111   -1.2000    0.0000 C   0  0  0  0  0  0           0  0  0
    6.4099   -2.0273    0.0000 C   0  0  0  0  0  0           0  0  0
    7.1247   -2.4402    0.0000 C   0  0  0  0  0  0           0  0  0
    7.8383   -1.1963    0.0000 C   0  0  0  0  0  0           0  0  0
    7.1229   -0.7872    0.0000 C   0  0  0  0  0  0           0  0  0
    2.8444    0.0292    0.0000 C   0  0  0  0  0  0           0  0  0
    2.8432   -0.7982    0.0000 C   0  0  0  0  0  0           0  0  0
    3.5581   -1.2110    0.0000 C   0  0  0  0  0  0           0  0  0
    4.2745   -0.7977    0.0000 C   0  0  0  0  0  0           0  0  0
    4.2716    0.0328    0.0000 C   0  0  0  0  0  0           0  0  0
    3.5563    0.4420    0.0000 C   0  0  0  0  0  0           0  0  0
    4.9875   -1.2042    0.0000 N   0  0  0  0  0  0           0  0  0
    5.7000   -0.7917    0.0000 S   0  0  3  0  0  0           0  0  0
    3.5500    1.2708    0.0000 C   0  0  0  0  0  0           0  0  0
    2.8333    1.6833    0.0000 O   0  0  0  0  0  0           0  0  0
    4.2625    1.6875    0.0000 O   0  0  0  0  0  0           0  0  0
    2.1250   -1.2042    0.0000 C   0  0  0  0  0  0           0  0  0
    1.4083   -0.7917    0.0000 O   0  0  0  0  0  0           0  0  0
    2.1208   -2.0292    0.0000 O   0  0  0  0  0  0           0  0  0
    4.9833   -0.3792    0.0000 O   0  0  0  0  0  0           0  0  0
    6.4042   -0.4875    0.0000 O   0  0  0  0  0  0           0  0  0
    8.5500   -0.7792    0.0000 N   0  3  0  0  0  0           0  0  0
    9.2625   -1.1917    0.0000 O   0  0  0  0  0  0           0  0  0
    8.5458    0.0458    0.0000 O   0  5  0  0  0  0           0  0  0
 16 17  1  0     0  0
  8  9  1  0     0  0
 17 18  2  0     0  0
  9  1  1  0     0  0
 18 19  1  0     0  0
  4  5  1  0     0  0
 19 20  2  0     0  0
 20 15  1  0     0  0
  2  3  1  0     0  0
 18 21  1  0     0  0
 10 11  2  0     0  0
 21 22  1  0     0  0
 22 10  1  0     0  0
  5  6  2  0     0  0
 20 23  1  0     0  0
 11 12  1  0     0  0
 23 24  2  0     0  0
 12  7  2  0     0  0
 23 25  1  0     0  0
  6  1  1  0     0  0
 16 26  1  0     0  0
  7 13  1  0     0  0
 26 27  1  0     0  0
  1  2  2  0     0  0
 26 28  2  0     0  0
 13 14  2  0     0  0
 22 29  2  0     0  0
 14 10  1  0     0  0
 22 30  2  0     0  0
  3  4  2  0     0  0
 13 31  1  0     0  0
  7  8  1  0     0  0
 31 32  2  0     0  0
 15 16  2  0     0  0
 31 33  1  0     0  0
M  CHG  2  31   1  33  -1
M  END
>  <prID>
825

>  <IDDB>
226968

>  <pIC50_HIV_Integrase>
4.180456064

>  <Q>
-2.159128248

>  <Activity_Integrase>
Inactive_Integrase

NA
NA
NA
NA
$$$$

  Accelrys05311914302D 1   1.00000     0.00000     0

 35 38  0     0  0            999 V2000
    8.9750   -3.0667    0.0000 C   0  0  0  0  0  0           0  0  0
    9.8000   -3.0667    0.0000 C   0  0  0  0  0  0           0  0  0
   10.0568   -2.2826    0.0000 C   0  0  0  0  0  0           0  0  0
    9.3875   -1.7958    0.0000 S   0  0  0  0  0  0           0  0  0
    8.7224   -2.2826    0.0000 C   0  0  0  0  0  0           0  0  0
    6.5884   -1.8811    0.0000 C   0  0  0  0  0  0           0  0  0
    7.3009   -2.2894    0.0000 N   0  0  0  0  0  0           0  0  0
    8.0134   -1.8769    0.0000 C   0  0  0  0  0  0           0  0  0
   -0.2151   -4.3133    0.0000 C   0  0  0  0  0  0           0  0  0
    0.6099   -4.3133    0.0000 C   0  0  0  0  0  0           0  0  0
    0.8667   -3.5292    0.0000 C   0  0  0  0  0  0           0  0  0
    0.1974   -3.0424    0.0000 S   0  0  0  0  0  0           0  0  0
   -0.4677   -3.5292    0.0000 C   0  0  0  0  0  0           0  0  0
    5.1583   -1.0542    0.0000 C   0  0  0  0  0  0           0  0  0
    5.1572   -1.8815    0.0000 C   0  0  0  0  0  0           0  0  0
    5.8720   -2.2944    0.0000 C   0  0  0  0  0  0           0  0  0
    6.5856   -1.0505    0.0000 C   0  0  0  0  0  0           0  0  0
    5.8702   -0.6414    0.0000 C   0  0  0  0  0  0           0  0  0
    2.3069   -1.0625    0.0000 C   0  0  0  0  0  0           0  0  0
    2.3057   -1.8898    0.0000 C   0  0  0  0  0  0           0  0  0
    3.0206   -2.3027    0.0000 C   0  0  0  0  0  0           0  0  0
    3.7370   -1.8894    0.0000 C   0  0  0  0  0  0           0  0  0
    3.7341   -1.0588    0.0000 C   0  0  0  0  0  0           0  0  0
    3.0188   -0.6497    0.0000 C   0  0  0  0  0  0           0  0  0
    4.4458   -0.6417    0.0000 C   0  0  0  0  0  0           0  0  0
    1.5875   -0.6458    0.0000 C   0  0  0  0  0  0           0  0  0
    0.8708   -1.0542    0.0000 O   0  0  0  0  0  0           0  0  0
    1.5833    0.1792    0.0000 O   0  0  0  0  0  0           0  0  0
    1.5875   -2.2958    0.0000 N   0  0  0  0  0  0           0  0  0
    1.5833   -3.1208    0.0000 C   0  0  0  0  0  0           0  0  0
    2.2958   -3.5333    0.0000 O   0  0  0  0  0  0           0  0  0
    5.8667   -3.1167    0.0000 C   0  0  0  0  0  0           0  0  0
    5.1500   -3.5250    0.0000 O   0  0  0  0  0  0           0  0  0
    6.5792   -3.5292    0.0000 O   0  0  0  0  0  0           0  0  0
    8.0083   -1.0500    0.0000 O   0  0  0  0  0  0           0  0  0
  9 10  1  0     0  0
 17 18  2  0     0  0
 18 14  1  0     0  0
  3  4  1  0     0  0
  4  5  1  0     0  0
 19 20  2  0     0  0
  5  1  2  0     0  0
 20 21  1  0     0  0
  1  2  1  0     0  0
 21 22  2  0     0  0
 22 23  1  0     0  0
 10 11  2  0     0  0
 23 24  2  0     0  0
 24 19  1  0     0  0
 11 12  1  0     0  0
 23 25  1  0     0  0
 25 14  1  0     0  0
 12 13  1  0     0  0
 19 26  1  0     0  0
 13  9  2  0     0  0
 26 27  1  0     0  0
  6  7  1  0     0  0
 26 28  2  0     0  0
  2  3  2  0     0  0
 20 29  1  0     0  0
 14 15  2  0     0  0
 29 30  1  0     0  0
  7  8  1  0     0  0
 30 31  2  0     0  0
 30 11  1  0     0  0
 15 16  1  0     0  0
 16 32  1  0     0  0
 16  6  2  0     0  0
 32 33  2  0     0  0
  8  5  1  0     0  0
 32 34  1  0     0  0
  6 17  1  0     0  0
  8 35  2  0     0  0
M  END
>  <prID>
826

>  <IDDB>
226969

>  <pIC50_HIV_Integrase>
4.420216403

>  <Q>
0.186005276

>  <Activity_Integrase>
Inactive_Integrase

NA
NA
NA
NA
$$$$

  Accelrys05311914302D 1   1.00000     0.00000     0

 43 46  0     0  0            999 V2000
    8.6027   -2.7666    0.0000 C   0  0  0  0  0  0           0  0  0
    8.6016   -3.5940    0.0000 C   0  0  0  0  0  0           0  0  0
    9.3164   -4.0069    0.0000 C   0  0  0  0  0  0           0  0  0
   10.0328   -3.5935    0.0000 C   0  0  0  0  0  0           0  0  0
   10.0300   -2.7630    0.0000 C   0  0  0  0  0  0           0  0  0
    9.3146   -2.3539    0.0000 C   0  0  0  0  0  0           0  0  0
    5.0402   -4.0166    0.0000 C   0  0  0  0  0  0           0  0  0
    5.0391   -4.8440    0.0000 C   0  0  0  0  0  0           0  0  0
    5.7539   -5.2569    0.0000 C   0  0  0  0  0  0           0  0  0
    6.4703   -4.8435    0.0000 C   0  0  0  0  0  0           0  0  0
    6.4675   -4.0130    0.0000 C   0  0  0  0  0  0           0  0  0
    5.7521   -3.6039    0.0000 C   0  0  0  0  0  0           0  0  0
    2.1861   -4.0208    0.0000 C   0  0  0  0  0  0           0  0  0
    2.1849   -4.8482    0.0000 C   0  0  0  0  0  0           0  0  0
    2.8997   -5.2610    0.0000 C   0  0  0  0  0  0           0  0  0
    3.6162   -4.8477    0.0000 C   0  0  0  0  0  0           0  0  0
    3.6133   -4.0172    0.0000 C   0  0  0  0  0  0           0  0  0
    2.8979   -3.6080    0.0000 C   0  0  0  0  0  0           0  0  0
   -1.3806   -2.7833    0.0000 C   0  0  0  0  0  0           0  0  0
   -1.3818   -3.6107    0.0000 C   0  0  0  0  0  0           0  0  0
   -0.6669   -4.0235    0.0000 C   0  0  0  0  0  0           0  0  0
    0.0495   -3.6102    0.0000 C   0  0  0  0  0  0           0  0  0
    0.0466   -2.7797    0.0000 C   0  0  0  0  0  0           0  0  0
   -0.6687   -2.3705    0.0000 C   0  0  0  0  0  0           0  0  0
   -2.1000   -4.0167    0.0000 N   0  3  0  0  0  0           0  0  0
    0.7583   -4.0208    0.0000 C   0  0  0  0  0  0           0  0  0
    1.4708   -3.6042    0.0000 N   0  0  0  0  0  0           0  0  0
    0.7542   -4.8458    0.0000 O   0  0  0  0  0  0           0  0  0
   -2.1042   -4.8417    0.0000 O   0  0  0  0  0  0           0  0  0
   -2.8167   -3.6042    0.0000 O   0  5  0  0  0  0           0  0  0
    2.8917   -2.7792    0.0000 C   0  0  0  0  0  0           0  0  0
    3.6042   -2.3625    0.0000 O   0  0  0  0  0  0           0  0  0
    2.1750   -2.3667    0.0000 O   0  0  0  0  0  0           0  0  0
    4.3250   -5.2583    0.0000 C   0  0  0  0  0  0           0  0  0
    7.1792   -3.5958    0.0000 N   0  0  0  0  0  0           0  0  0
    5.7458   -2.7750    0.0000 C   0  0  0  0  0  0           0  0  0
    5.0292   -2.3625    0.0000 O   0  0  0  0  0  0           0  0  0
    6.4583   -2.3583    0.0000 O   0  0  0  0  0  0           0  0  0
    7.8917   -4.0083    0.0000 C   0  0  0  0  0  0           0  0  0
    7.8875   -4.8333    0.0000 O   0  0  0  0  0  0           0  0  0
    9.3083   -1.5250    0.0000 N   0  3  0  0  0  0           0  0  0
    8.5917   -1.1125    0.0000 O   0  5  0  0  0  0           0  0  0
   10.2958   -1.0292    0.0000 O   0  0  0  0  0  0           0  0  0
 21 22  2  0     0  0
  5  6  2  0     0  0
 22 23  1  0     0  0
 11 12  2  0     0  0
 23 24  2  0     0  0
 24 19  1  0     0  0
 12  7  1  0     0  0
 20 25  1  0     0  0
  6  1  1  0     0  0
 22 26  1  0     0  0
  1  2  2  0     0  0
 26 27  1  0     0  0
 13 14  2  0     0  0
 26 28  2  0     0  0
 27 13  1  0     0  0
  3  4  2  0     0  0
 25 29  2  0     0  0
 14 15  1  0     0  0
 25 30  1  0     0  0
  7  8  2  0     0  0
 18 31  1  0     0  0
 15 16  2  0     0  0
 31 32  1  0     0  0
 31 33  2  0     0  0
 16 17  1  0     0  0
 16 34  1  0     0  0
 34  8  1  0     0  0
  8  9  1  0     0  0
 11 35  1  0     0  0
 17 18  2  0     0  0
 12 36  1  0     0  0
 18 13  1  0     0  0
 36 37  2  0     0  0
  4  5  1  0     0  0
 36 38  1  0     0  0
  9 10  2  0     0  0
 35 39  1  0     0  0
 39  2  1  0     0  0
 19 20  2  0     0  0
 39 40  2  0     0  0
  2  3  1  0     0  0
  6 41  1  0     0  0
 20 21  1  0     0  0
 41 42  1  0     0  0
 10 11  1  0     0  0
 41 43  2  0     0  0
M  CHG  4  25   1  30  -1  41   1  42  -1
M  END
>  <prID>
827

>  <IDDB>
226970

>  <pIC50_HIV_Integrase>
4.886056648

>  <Q>
-1.475485443

>  <Activity_Integrase>
Inactive_Integrase

NA
NA
NA
NA
$$$$

  Accelrys05311914302D 1   1.00000     0.00000     0

 22 23  0     0  0            999 V2000
    6.2125   -2.4541    0.0000 S   0  0  0  0  0  0           0  0  0
    6.8818   -1.9717    0.0000 C   0  0  0  0  0  0           0  0  0
    6.6250   -1.1834    0.0000 C   0  0  0  0  0  0           0  0  0
    5.8000   -1.1834    0.0000 C   0  0  0  0  0  0           0  0  0
    5.5432   -1.9717    0.0000 C   0  0  0  0  0  0           0  0  0
    0.8708   -2.5333    0.0000 S   0  0  0  0  0  0           0  0  0
    1.5401   -2.0508    0.0000 C   0  0  0  0  0  0           0  0  0
    1.2833   -1.2625    0.0000 C   0  0  0  0  0  0           0  0  0
    0.4583   -1.2625    0.0000 C   0  0  0  0  0  0           0  0  0
    0.2015   -2.0508    0.0000 C   0  0  0  0  0  0           0  0  0
    1.8667   -0.6750    0.0000 C   0  0  0  0  0  0           0  0  0
    2.6917   -0.6750    0.0000 N   0  0  0  0  0  0           0  0  0
    3.1000    0.0417    0.0000 C   0  0  0  0  0  0           0  0  0
    3.9250    0.0417    0.0000 C   0  0  0  0  0  0           0  0  0
    4.3333   -0.6708    0.0000 N   0  0  0  0  0  0           0  0  0
    5.1583   -0.6708    0.0000 C   0  0  0  0  0  0           0  0  0
    2.2500   -2.4625    0.0000 S   0  0  0  0  0  0           0  0  0
   -0.5167   -2.4583    0.0000 C   0  0  0  0  0  0           0  0  0
   -1.2333   -2.0458    0.0000 C   0  0  0  0  0  0           0  0  0
    4.8250   -2.3792    0.0000 S   0  0  0  0  0  0           0  0  0
    7.5917   -2.3833    0.0000 C   0  0  0  0  0  0           0  0  0
    8.3042   -1.9667    0.0000 C   0  0  0  0  0  0           0  0  0
  8 11  1  0     0  0
  9 10  2  0     0  0
 11 12  2  0     0  0
 12 13  1  0     0  0
  4  5  2  0     0  0
 13 14  1  0     0  0
  7  8  2  0     0  0
 14 15  1  0     0  0
  2  3  2  0     0  0
 15 16  2  0     0  0
 16  4  1  0     0  0
  1  2  1  0     0  0
  7 17  1  0     0  0
  3  4  1  0     0  0
 10 18  1  0     0  0
  6  7  1  0     0  0
 18 19  1  0     0  0
  8  9  1  0     0  0
  5 20  1  0     0  0
 10  6  1  0     0  0
  2 21  1  0     0  0
  5  1  1  0     0  0
 21 22  1  0     0  0
M  END
>  <prID>
828

>  <IDDB>
226972

>  <pIC50_HIV_Integrase>
4.9498147275

>  <Q>
4.951453901

>  <Activity_Integrase>
Inactive_Integrase

NA
NA
NA
NA
$$$$

  Accelrys05311914302D 1   1.00000     0.00000     0

 35 38  0     0  0            999 V2000
   -0.7181   -1.8416    0.0000 C   0  0  0  0  0  0           0  0  0
   -0.7193   -2.6690    0.0000 C   0  0  0  0  0  0           0  0  0
   -0.0044   -3.0819    0.0000 C   0  0  0  0  0  0           0  0  0
    0.7120   -2.6685    0.0000 C   0  0  0  0  0  0           0  0  0
    0.7091   -1.8380    0.0000 C   0  0  0  0  0  0           0  0  0
   -0.0062   -1.4289    0.0000 C   0  0  0  0  0  0           0  0  0
    9.3470    0.6315    0.0000 C   0  0  0  0  0  0           0  0  0
    9.3458   -0.1958    0.0000 C   0  0  0  0  0  0           0  0  0
   10.0606   -0.6087    0.0000 C   0  0  0  0  0  0           0  0  0
   10.7771   -0.1954    0.0000 C   0  0  0  0  0  0           0  0  0
   10.7742    0.6352    0.0000 C   0  0  0  0  0  0           0  0  0
   10.0588    1.0443    0.0000 C   0  0  0  0  0  0           0  0  0
    5.7819   -0.6208    0.0000 C   0  0  0  0  0  0           0  0  0
    5.7807   -1.4482    0.0000 C   0  0  0  0  0  0           0  0  0
    6.4956   -1.8610    0.0000 C   0  0  0  0  0  0           0  0  0
    7.2120   -1.4477    0.0000 C   0  0  0  0  0  0           0  0  0
    7.2091   -0.6172    0.0000 C   0  0  0  0  0  0           0  0  0
    6.4938   -0.2080    0.0000 C   0  0  0  0  0  0           0  0  0
    2.9319   -0.6250    0.0000 C   0  0  0  0  0  0           0  0  0
    2.9307   -1.4523    0.0000 C   0  0  0  0  0  0           0  0  0
    3.6456   -1.8652    0.0000 C   0  0  0  0  0  0           0  0  0
    4.3620   -1.4519    0.0000 C   0  0  0  0  0  0           0  0  0
    4.3591   -0.6213    0.0000 C   0  0  0  0  0  0           0  0  0
    3.6438   -0.2122    0.0000 C   0  0  0  0  0  0           0  0  0
    5.0708   -0.2042    0.0000 C   0  0  0  0  0  0           0  0  0
    2.2125   -0.2083    0.0000 O   0  0  0  0  0  0           0  0  0
    7.9208   -1.8583    0.0000 O   0  0  0  0  0  0           0  0  0
    7.9208   -0.2000    0.0000 N   0  0  0  0  0  0           0  0  0
    2.2125   -1.8583    0.0000 N   0  0  0  0  0  0           0  0  0
    8.6333   -0.6125    0.0000 C   0  0  0  0  0  0           0  0  0
    8.6292   -1.4375    0.0000 O   0  0  0  0  0  0           0  0  0
    1.4958   -1.4458    0.0000 C   0  0  0  0  0  0           0  0  0
    1.4917   -0.6208    0.0000 O   0  0  0  0  0  0           0  0  0
   -0.0125   -0.6000    0.0000 F   0  0  0  0  0  0           0  0  0
    8.6292    1.0458    0.0000 F   0  0  0  0  0  0           0  0  0
 17 18  2  0     0  0
 18 13  1  0     0  0
  4  5  1  0     0  0
  9 10  2  0     0  0
 19 20  2  0     0  0
  2  3  1  0     0  0
 20 21  1  0     0  0
 10 11  1  0     0  0
 21 22  2  0     0  0
  5  6  2  0     0  0
 22 23  1  0     0  0
 11 12  2  0     0  0
 23 24  2  0     0  0
 24 19  1  0     0  0
 12  7  1  0     0  0
 23 25  1  0     0  0
 25 13  1  0     0  0
  6  1  1  0     0  0
 19 26  1  0     0  0
  1  2  2  0     0  0
 16 27  1  0     0  0
 13 14  2  0     0  0
 17 28  1  0     0  0
  3  4  2  0     0  0
 20 29  1  0     0  0
 14 15  1  0     0  0
 28 30  1  0     0  0
  7  8  2  0     0  0
 30 31  2  0     0  0
 30  8  1  0     0  0
 15 16  2  0     0  0
 29 32  1  0     0  0
 32  5  1  0     0  0
 32 33  2  0     0  0
 16 17  1  0     0  0
  6 34  1  0     0  0
  8  9  1  0     0  0
  7 35  1  0     0  0
M  END
>  <prID>
829

>  <IDDB>
226973

>  <pIC50_HIV_Integrase>
4.48148606

>  <Q>
-5.767850769

>  <Activity_Integrase>
Inactive_Integrase

NA
NA
NA
NA
$$$$

  Accelrys05311914302D 1   1.00000     0.00000     0

 36 38  0     0  0            999 V2000
   -1.7889   -2.5958    0.0000 C   0  0  0  0  0  0           0  0  0
   -1.7901   -3.4232    0.0000 C   0  0  0  0  0  0           0  0  0
   -1.0753   -3.8360    0.0000 C   0  0  0  0  0  0           0  0  0
   -0.3588   -3.4227    0.0000 C   0  0  0  0  0  0           0  0  0
   -0.3617   -2.5922    0.0000 C   0  0  0  0  0  0           0  0  0
   -1.0771   -2.1830    0.0000 C   0  0  0  0  0  0           0  0  0
    0.3542   -2.1833    0.0000 N   0  0  0  0  0  0           0  0  0
    1.0667   -2.5917    0.0000 C   0  0  0  0  0  0           0  0  0
    1.7792   -2.1792    0.0000 C   0  0  0  0  0  0           0  0  0
    2.4917   -2.5875    0.0000 N   0  0  0  0  0  0           0  0  0
    3.2042   -2.1750    0.0000 N   0  0  0  0  0  0           0  0  0
    3.9167   -2.5833    0.0000 C   0  0  0  0  0  0           0  0  0
   10.2486   -1.3416    0.0000 C   0  0  0  0  0  0           0  0  0
   10.2474   -2.1690    0.0000 C   0  0  0  0  0  0           0  0  0
   10.9622   -2.5819    0.0000 C   0  0  0  0  0  0           0  0  0
   11.6787   -2.1685    0.0000 C   0  0  0  0  0  0           0  0  0
   11.6758   -1.3380    0.0000 C   0  0  0  0  0  0           0  0  0
   10.9604   -0.9289    0.0000 C   0  0  0  0  0  0           0  0  0
    6.6833   -2.5875    0.0000 C   0  0  0  0  0  0           0  0  0
    7.3958   -2.1750    0.0000 N   0  0  0  0  0  0           0  0  0
    8.1083   -2.5833    0.0000 C   0  0  0  0  0  0           0  0  0
    8.8208   -2.1708    0.0000 C   0  0  0  0  0  0           0  0  0
    9.5333   -2.5792    0.0000 N   0  0  0  0  0  0           0  0  0
    5.3042   -2.6583    0.0000 O   0  0  0  0  0  0           0  0  0
    5.9735   -2.1758    0.0000 C   0  0  0  0  0  0           0  0  0
    5.7167   -1.3875    0.0000 C   0  0  0  0  0  0           0  0  0
    4.8917   -1.3875    0.0000 C   0  0  0  0  0  0           0  0  0
    4.6349   -2.1758    0.0000 C   0  0  0  0  0  0           0  0  0
    8.1042   -3.4083    0.0000 O   0  0  0  0  0  0           0  0  0
    8.8167   -1.3458    0.0000 O   0  0  0  0  0  0           0  0  0
   12.3875   -0.9208    0.0000 C   0  0  0  0  0  0           0  0  0
   12.3875   -2.5792    0.0000 C   0  0  0  0  0  0           0  0  0
    1.7750   -1.3542    0.0000 O   0  0  0  0  0  0           0  0  0
    1.0625   -3.4167    0.0000 O   0  0  0  0  0  0           0  0  0
    0.3500   -3.8333    0.0000 C   0  0  0  0  0  0           0  0  0
   -2.5083   -2.1792    0.0000 Cl  0  0  0  0  0  0           0  0  0
 18 13  1  0     0  0
  8  9  1  0     0  0
  4  5  1  0     0  0
 19 20  1  0     0  0
  9 10  1  0     0  0
 20 21  1  0     0  0
  2  3  1  0     0  0
 21 22  1  0     0  0
 10 11  1  0     0  0
 22 23  1  0     0  0
 23 14  1  0     0  0
 27 28  2  0     0  0
  5  6  2  0     0  0
 11 12  2  0     0  0
 25 26  2  0     0  0
  6  1  1  0     0  0
  1  2  2  0     0  0
 13 14  2  0     0  0
 24 25  1  0     0  0
 26 27  1  0     0  0
 28 24  1  0     0  0
 25 19  1  0     0  0
 28 12  1  0     0  0
  5  7  1  0     0  0
 21 29  2  0     0  0
 14 15  1  0     0  0
 22 30  2  0     0  0
  3  4  2  0     0  0
 17 31  1  0     0  0
 15 16  2  0     0  0
 16 32  1  0     0  0
  7  8  1  0     0  0
  9 33  2  0     0  0
 16 17  1  0     0  0
  8 34  2  0     0  0
  4 35  1  0     0  0
 17 18  2  0     0  0
  1 36  1  0     0  0
M  END
>  <prID>
830

>  <IDDB>
226975

>  <pIC50_HIV_Integrase>
4.15490196

>  <Q>
-3.82164499

>  <Activity_Integrase>
Inactive_Integrase

NA
NA
NA
NA
$$$$

  Accelrys05311914302D 1   1.00000     0.00000     0

 28 32  0     0  0            999 V2000
    6.1671   -4.7090    0.0000 C   0  0  0  0  0  0           0  0  0
    7.4275   -5.4352    0.0000 C   0  0  0  0  0  0           0  0  0
    7.8191   -4.7165    0.0000 C   0  0  0  0  0  0           0  0  0
    7.4041   -3.9970    0.0000 C   0  0  0  0  0  0           0  0  0
    6.5800   -3.9972    0.0000 C   0  0  0  0  0  0           0  0  0
    6.5750   -5.4250    0.0000 C   0  0  0  0  0  0           0  0  0
    7.8145   -6.1527    0.0000 C   0  0  0  0  0  0           0  0  0
    8.6400   -6.1560    0.0000 C   0  0  0  0  0  0           0  0  0
    9.0566   -5.4415    0.0000 C   0  0  0  0  0  0           0  0  0
    8.6416   -4.7220    0.0000 C   0  0  0  0  0  0           0  0  0
    7.3958   -6.8625    0.0000 C   0  0  0  0  0  0           0  0  0
    6.0686   -6.8571    0.0000 N   0  0  3  0  0  0           0  0  0
    1.9250   -6.4125    0.0000 C   0  0  0  0  0  0           0  0  0
    1.9250   -7.2375    0.0000 C   0  0  0  0  0  0           0  0  0
    2.6370   -7.6458    0.0000 N   0  0  0  0  0  0           0  0  0
    3.3490   -7.2375    0.0000 C   0  0  0  0  0  0           0  0  0
    3.3490   -6.4125    0.0000 C   0  0  0  0  0  0           0  0  0
    2.6370   -5.9958    0.0000 N   0  0  0  0  0  0           0  0  0
    4.7866   -7.2336    0.0000 C   0  0  0  0  0  0           0  0  0
    5.5640   -7.5099    0.0000 C   0  0  0  0  0  0           0  0  0
    5.6010   -6.1743    0.0000 C   0  0  0  0  0  0           0  0  0
    4.8114   -6.4102    0.0000 C   0  0  0  0  0  0           0  0  0
    4.0664   -7.6485    0.0000 C   0  0  0  0  0  0           0  0  0
    4.0646   -5.9955    0.0000 C   0  0  0  0  0  0           0  0  0
    5.8125   -5.3708    0.0000 O   0  0  0  0  0  0           0  0  0
    5.7750   -8.3042    0.0000 O   0  0  0  0  0  0           0  0  0
    4.0583   -5.1667    0.0000 O   0  0  0  0  0  0           0  0  0
    4.0583   -8.4708    0.0000 O   0  0  0  0  0  0           0  0  0
  2  7  2  0     0  0
  7  8  1  0     0  0
  3  4  1  0     0  0
 13 18  2  0     0  0
 14 15  2  0     0  0
 15 16  1  0     0  0
 16 17  2  0     0  0
 17 18  1  0     0  0
 19 20  1  0     0  0
  8  9  2  0     0  0
  6  2  1  0     0  0
  9 10  1  0     0  0
 10  3  2  0     0  0
 20 12  1  0     0  0
 12 21  1  0     0  0
 21 22  1  0     0  0
 22 19  1  0     0  0
  4  5  2  0     0  0
 16 23  1  0     0  0
 23 19  2  0     0  0
  7 11  1  0     0  0
 22 24  2  0     0  0
 24 17  1  0     0  0
  5  1  1  0     0  0
 21 25  2  0     0  0
 13 14  1  0     0  0
 20 26  2  0     0  0
  1  6  2  0     0  0
 24 27  1  0     0  0
  2  3  1  0     0  0
 23 28  1  0     0  0
 12 11  1  0     0  0
M  END
>  <prID>
831

>  <IDDB>
227244

>  <pIC50_HIV_Integrase>
5.849857838

>  <Q>
-0.514749118

>  <Activity_Integrase>
Inactive_Integrase

NA
NA
NA
NA
$$$$

  Accelrys05311914302D 1   1.00000     0.00000     0

 25 28  0     0  0            999 V2000
    7.1948   -2.5394    0.0000 C   0  0  0  0  0  0           0  0  0
    7.5901   -3.2662    0.0000 C   0  0  0  0  0  0           0  0  0
    8.4154   -3.2862    0.0000 C   0  0  0  0  0  0           0  0  0
    8.8462   -2.5801    0.0000 C   0  0  0  0  0  0           0  0  0
    8.4458   -1.8525    0.0000 C   0  0  0  0  0  0           0  0  0
    7.6219   -1.8361    0.0000 C   0  0  0  0  0  0           0  0  0
    7.1542   -3.9667    0.0000 C   0  0  0  0  0  0           0  0  0
    2.1819   -3.5208    0.0000 C   0  0  0  0  0  0           0  0  0
    2.1807   -4.3482    0.0000 C   0  0  0  0  0  0           0  0  0
    2.8956   -4.7610    0.0000 N   0  0  0  0  0  0           0  0  0
    3.6120   -4.3477    0.0000 C   0  0  0  0  0  0           0  0  0
    3.6091   -3.5172    0.0000 C   0  0  0  0  0  0           0  0  0
    2.8938   -3.1080    0.0000 C   0  0  0  0  0  0           0  0  0
    5.0491   -4.3461    0.0000 C   0  0  0  0  0  0           0  0  0
    5.8265   -4.6224    0.0000 C   0  0  0  0  0  0           0  0  0
    6.3311   -3.9696    0.0000 N   0  0  3  0  0  0           0  0  0
    5.8635   -3.2868    0.0000 C   0  0  0  0  0  0           0  0  0
    5.0739   -3.5227    0.0000 C   0  0  0  0  0  0           0  0  0
    4.3289   -4.7610    0.0000 C   0  0  0  0  0  0           0  0  0
    4.3271   -3.1080    0.0000 C   0  0  0  0  0  0           0  0  0
    6.0750   -2.4833    0.0000 O   0  0  0  0  0  0           0  0  0
    6.0375   -5.4167    0.0000 O   0  0  0  0  0  0           0  0  0
    4.3208   -2.2792    0.0000 O   0  0  0  0  0  0           0  0  0
    4.3208   -5.5833    0.0000 O   0  0  0  0  0  0           0  0  0
    7.2193   -1.1115    0.0000 Br  0  0  0  0  0  0           0  0  0
 12 13  1  0     0  0
 13  8  2  0     0  0
 14 15  1  0     0  0
  1  2  2  0     0  0
  2  7  1  0     0  0
  3  4  2  0     0  0
  8  9  1  0     0  0
 15 16  1  0     0  0
 16 17  1  0     0  0
 17 18  1  0     0  0
 18 14  1  0     0  0
  4  5  1  0     0  0
 11 19  1  0     0  0
 19 14  2  0     0  0
  9 10  2  0     0  0
 18 20  2  0     0  0
 20 12  1  0     0  0
  2  3  1  0     0  0
 17 21  2  0     0  0
 10 11  1  0     0  0
 15 22  2  0     0  0
  5  6  2  0     0  0
 20 23  1  0     0  0
 11 12  2  0     0  0
 19 24  1  0     0  0
 16  7  1  0     0  0
  6  1  1  0     0  0
  6 25  1  0     0  0
M  END
>  <prID>
832

>  <IDDB>
227459

>  <pIC50_HIV_Integrase>
6.420216403

>  <Q>
-0.542385075

>  <Activity_Integrase>
Active_Integrase

NA
NA
NA
NA
$$$$

  Accelrys05311914302D 1   1.00000     0.00000     0

 26 29  0     0  0            999 V2000
    2.5417   -3.5333    0.0000 C   0  0  0  0  0  0           0  0  0
    2.5417   -4.3583    0.0000 C   0  0  0  0  0  0           0  0  0
    3.2537   -4.7667    0.0000 N   0  0  0  0  0  0           0  0  0
    3.9657   -4.3583    0.0000 C   0  0  0  0  0  0           0  0  0
    3.9657   -3.5333    0.0000 C   0  0  0  0  0  0           0  0  0
    3.2537   -3.1167    0.0000 C   0  0  0  0  0  0           0  0  0
    7.5237   -2.5401    0.0000 C   0  0  0  0  0  0           0  0  0
    7.9325   -3.2594    0.0000 C   0  0  0  0  0  0           0  0  0
    8.7580   -3.2641    0.0000 C   0  0  0  0  0  0           0  0  0
    9.1756   -2.5501    0.0000 C   0  0  0  0  0  0           0  0  0
    8.7618   -1.8300    0.0000 C   0  0  0  0  0  0           0  0  0
    7.9377   -1.8289    0.0000 C   0  0  0  0  0  0           0  0  0
    7.5096   -3.9679    0.0000 C   0  0  0  0  0  0           0  0  0
    5.4033   -4.3544    0.0000 C   0  0  0  0  0  0           0  0  0
    6.1806   -4.6308    0.0000 C   0  0  0  0  0  0           0  0  0
    6.6853   -3.9780    0.0000 N   0  0  3  0  0  0           0  0  0
    6.2177   -3.2952    0.0000 C   0  0  0  0  0  0           0  0  0
    5.4280   -3.5310    0.0000 C   0  0  0  0  0  0           0  0  0
    4.6831   -4.7694    0.0000 C   0  0  0  0  0  0           0  0  0
    4.6813   -3.1164    0.0000 C   0  0  0  0  0  0           0  0  0
    6.4292   -2.4917    0.0000 O   0  0  0  0  0  0           0  0  0
    6.3917   -5.4250    0.0000 O   0  0  0  0  0  0           0  0  0
    4.6750   -2.2875    0.0000 O   0  0  0  0  0  0           0  0  0
    4.6750   -5.5917    0.0000 O   0  0  0  0  0  0           0  0  0
    7.5217   -1.1120    0.0000 Br  0  0  0  0  0  0           0  0  0
    1.8250   -4.7667    0.0000 C   0  0  0  0  0  0           0  0  0
  8 13  1  0     0  0
 14 15  1  0     0  0
  1  2  1  0     0  0
  7  8  2  0     0  0
  1  6  2  0     0  0
  8  9  1  0     0  0
 15 16  1  0     0  0
 16 17  1  0     0  0
 17 18  1  0     0  0
 18 14  1  0     0  0
  2  3  2  0     0  0
  4 19  1  0     0  0
 19 14  2  0     0  0
  9 10  2  0     0  0
 18 20  2  0     0  0
 20  5  1  0     0  0
  3  4  1  0     0  0
 17 21  2  0     0  0
 10 11  1  0     0  0
 15 22  2  0     0  0
  4  5  2  0     0  0
 20 23  1  0     0  0
 11 12  2  0     0  0
 19 24  1  0     0  0
 16 13  1  0     0  0
 12  7  1  0     0  0
 12 25  1  0     0  0
  5  6  1  0     0  0
  2 26  1  0     0  0
M  END
>  <prID>
833

>  <IDDB>
227460

>  <pIC50_HIV_Integrase>
6.590066877

>  <Q>
-0.995126894

>  <Activity_Integrase>
Active_Integrase

NA
NA
NA
NA
$$$$

  Accelrys05311914302D 1   1.00000     0.00000     0

 25 28  0     0  0            999 V2000
    2.1917   -3.5333    0.0000 C   0  0  0  0  0  0           0  0  0
    2.1917   -4.3583    0.0000 N   0  0  0  0  0  0           0  0  0
    2.9037   -4.7667    0.0000 N   0  0  0  0  0  0           0  0  0
    3.6157   -4.3583    0.0000 C   0  0  0  0  0  0           0  0  0
    3.6157   -3.5333    0.0000 C   0  0  0  0  0  0           0  0  0
    2.9037   -3.1167    0.0000 C   0  0  0  0  0  0           0  0  0
    7.1435   -2.5347    0.0000 C   0  0  0  0  0  0           0  0  0
    7.5671   -3.2455    0.0000 C   0  0  0  0  0  0           0  0  0
    8.3924   -3.2330    0.0000 C   0  0  0  0  0  0           0  0  0
    8.7953   -2.5106    0.0000 C   0  0  0  0  0  0           0  0  0
    8.3667   -1.7993    0.0000 C   0  0  0  0  0  0           0  0  0
    7.5427   -1.8152    0.0000 C   0  0  0  0  0  0           0  0  0
    7.1589   -3.9625    0.0000 C   0  0  0  0  0  0           0  0  0
    5.0533   -4.3544    0.0000 C   0  0  0  0  0  0           0  0  0
    5.8306   -4.6308    0.0000 C   0  0  0  0  0  0           0  0  0
    6.3353   -3.9780    0.0000 N   0  0  3  0  0  0           0  0  0
    5.8677   -3.2952    0.0000 C   0  0  0  0  0  0           0  0  0
    5.0780   -3.5310    0.0000 C   0  0  0  0  0  0           0  0  0
    4.3331   -4.7694    0.0000 C   0  0  0  0  0  0           0  0  0
    4.3313   -3.1164    0.0000 C   0  0  0  0  0  0           0  0  0
    6.0792   -2.4917    0.0000 O   0  0  0  0  0  0           0  0  0
    6.0417   -5.4250    0.0000 O   0  0  0  0  0  0           0  0  0
    4.3250   -2.2875    0.0000 O   0  0  0  0  0  0           0  0  0
    4.3250   -5.5917    0.0000 O   0  0  0  0  0  0           0  0  0
    7.1120   -1.1070    0.0000 Br  0  0  0  0  0  0           0  0  0
  5  6  1  0     0  0
  8 13  1  0     0  0
 14 15  1  0     0  0
  1  2  1  0     0  0
  7  8  2  0     0  0
  1  6  2  0     0  0
  8  9  1  0     0  0
 15 16  1  0     0  0
 16 17  1  0     0  0
 17 18  1  0     0  0
 18 14  1  0     0  0
  2  3  2  0     0  0
  4 19  1  0     0  0
 19 14  2  0     0  0
  9 10  2  0     0  0
 18 20  2  0     0  0
 20  5  1  0     0  0
  3  4  1  0     0  0
 17 21  2  0     0  0
 10 11  1  0     0  0
 15 22  2  0     0  0
  4  5  2  0     0  0
 20 23  1  0     0  0
 11 12  2  0     0  0
 19 24  1  0     0  0
 16 13  1  0     0  0
 12  7  1  0     0  0
 12 25  1  0     0  0
M  END
>  <prID>
834

>  <IDDB>
227461

>  <pIC50_HIV_Integrase>
5.439973751

>  <Q>
-1.031707656

>  <Activity_Integrase>
Inactive_Integrase

NA
NA
NA
NA
$$$$

  Accelrys05311914302D 1   1.00000     0.00000     0

 25 28  0     0  0            999 V2000
    2.1833   -3.5333    0.0000 C   0  0  0  0  0  0           0  0  0
    2.1833   -4.3583    0.0000 C   0  0  0  0  0  0           0  0  0
    2.8954   -4.7667    0.0000 N   0  0  0  0  0  0           0  0  0
    3.6074   -4.3583    0.0000 C   0  0  0  0  0  0           0  0  0
    3.6074   -3.5333    0.0000 C   0  0  0  0  0  0           0  0  0
    2.8954   -3.1167    0.0000 N   0  0  0  0  0  0           0  0  0
    7.1240   -2.5401    0.0000 C   0  0  0  0  0  0           0  0  0
    7.5535   -3.2473    0.0000 C   0  0  0  0  0  0           0  0  0
    8.3787   -3.2280    0.0000 C   0  0  0  0  0  0           0  0  0
    8.7755   -2.5023    0.0000 C   0  0  0  0  0  0           0  0  0
    8.3410   -1.7945    0.0000 C   0  0  0  0  0  0           0  0  0
    7.5172   -1.8173    0.0000 C   0  0  0  0  0  0           0  0  0
    7.1513   -3.9677    0.0000 C   0  0  0  0  0  0           0  0  0
    5.0450   -4.3544    0.0000 C   0  0  0  0  0  0           0  0  0
    5.8223   -4.6308    0.0000 C   0  0  0  0  0  0           0  0  0
    6.3270   -3.9780    0.0000 N   0  0  3  0  0  0           0  0  0
    5.8594   -3.2952    0.0000 C   0  0  0  0  0  0           0  0  0
    5.0697   -3.5310    0.0000 C   0  0  0  0  0  0           0  0  0
    4.3247   -4.7694    0.0000 C   0  0  0  0  0  0           0  0  0
    4.3229   -3.1164    0.0000 C   0  0  0  0  0  0           0  0  0
    6.0708   -2.4917    0.0000 O   0  0  0  0  0  0           0  0  0
    6.0333   -5.4250    0.0000 O   0  0  0  0  0  0           0  0  0
    4.3167   -2.2875    0.0000 O   0  0  0  0  0  0           0  0  0
    4.3167   -5.5917    0.0000 O   0  0  0  0  0  0           0  0  0
    7.0807   -1.1127    0.0000 Br  0  0  0  0  0  0           0  0  0
  5  6  1  0     0  0
  8 13  1  0     0  0
 14 15  1  0     0  0
  1  2  1  0     0  0
  7  8  2  0     0  0
  1  6  2  0     0  0
  8  9  1  0     0  0
 15 16  1  0     0  0
 16 17  1  0     0  0
 17 18  1  0     0  0
 18 14  1  0     0  0
  2  3  2  0     0  0
  4 19  1  0     0  0
 19 14  2  0     0  0
  9 10  2  0     0  0
 18 20  2  0     0  0
 20  5  1  0     0  0
  3  4  1  0     0  0
 17 21  2  0     0  0
 10 11  1  0     0  0
 15 22  2  0     0  0
  4  5  2  0     0  0
 20 23  1  0     0  0
 11 12  2  0     0  0
 19 24  1  0     0  0
 16 13  1  0     0  0
 12  7  1  0     0  0
 12 25  1  0     0  0
M  END
>  <prID>
835

>  <IDDB>
227462

>  <pIC50_HIV_Integrase>
6.679853714

>  <Q>
-0.891004836

>  <Activity_Integrase>
Active_Integrase

NA
NA
NA
NA
$$$$

  Accelrys05311914302D 1   1.00000     0.00000     0

 18 20  0     0  0            999 V2000
    0.9167   -2.2792    0.0000 C   0  0  0  0  0  0           0  0  0
    0.9167   -3.1042    0.0000 C   0  0  0  0  0  0           0  0  0
    1.6287   -3.5125    0.0000 N   0  0  0  0  0  0           0  0  0
    2.3407   -3.1042    0.0000 C   0  0  0  0  0  0           0  0  0
    2.3407   -2.2792    0.0000 C   0  0  0  0  0  0           0  0  0
    1.6287   -1.8625    0.0000 N   0  0  0  0  0  0           0  0  0
    5.8833   -2.7162    0.0000 C   0  0  0  0  0  0           0  0  0
    3.7783   -3.1002    0.0000 C   0  0  0  0  0  0           0  0  0
    4.5556   -3.3766    0.0000 C   0  0  0  0  0  0           0  0  0
    5.0603   -2.7238    0.0000 N   0  0  3  0  0  0           0  0  0
    4.5927   -2.0410    0.0000 C   0  0  0  0  0  0           0  0  0
    3.8030   -2.2768    0.0000 C   0  0  0  0  0  0           0  0  0
    3.0581   -3.5152    0.0000 C   0  0  0  0  0  0           0  0  0
    3.0563   -1.8622    0.0000 C   0  0  0  0  0  0           0  0  0
    4.8042   -1.2375    0.0000 O   0  0  0  0  0  0           0  0  0
    4.7667   -4.1708    0.0000 O   0  0  0  0  0  0           0  0  0
    3.0500   -1.0333    0.0000 O   0  0  0  0  0  0           0  0  0
    3.0500   -4.3375    0.0000 O   0  0  0  0  0  0           0  0  0
  3  4  1  0     0  0
  4  5  2  0     0  0
  9 10  1  0     0  0
 10 11  1  0     0  0
 11 12  1  0     0  0
 12  8  1  0     0  0
  5  6  1  0     0  0
  4 13  1  0     0  0
 13  8  2  0     0  0
 12 14  2  0     0  0
 14  5  1  0     0  0
  8  9  1  0     0  0
 11 15  2  0     0  0
  1  2  1  0     0  0
  9 16  2  0     0  0
  1  6  2  0     0  0
 14 17  1  0     0  0
  2  3  2  0     0  0
 13 18  1  0     0  0
 10  7  1  0     0  0
M  END
>  <prID>
836

>  <IDDB>
227463

>  <pIC50_HIV_Integrase>
4.309998953

>  <Q>
-1.233065623

>  <Activity_Integrase>
Inactive_Integrase

NA
NA
NA
NA
$$$$

  Accelrys05311914302D 1   1.00000     0.00000     0

 22 25  0     0  0            999 V2000
    7.1451   -3.1777    0.0000 C   0  0  0  0  0  0           0  0  0
    7.1783   -2.3533    0.0000 C   0  0  0  0  0  0           0  0  0
    6.4051   -2.0652    0.0000 C   0  0  0  0  0  0           0  0  0
    5.8919   -2.7144    0.0000 C   0  0  3  0  0  0           0  0  0
    6.3515   -3.3985    0.0000 C   0  0  0  0  0  0           0  0  0
    5.0603   -2.7238    0.0000 N   0  0  3  0  0  0           0  0  0
    0.9167   -2.2792    0.0000 C   0  0  0  0  0  0           0  0  0
    0.9167   -3.1042    0.0000 C   0  0  0  0  0  0           0  0  0
    1.6287   -3.5125    0.0000 N   0  0  0  0  0  0           0  0  0
    2.3407   -3.1042    0.0000 C   0  0  0  0  0  0           0  0  0
    2.3407   -2.2792    0.0000 C   0  0  0  0  0  0           0  0  0
    1.6287   -1.8625    0.0000 N   0  0  0  0  0  0           0  0  0
    3.7783   -3.1002    0.0000 C   0  0  0  0  0  0           0  0  0
    4.5556   -3.3766    0.0000 C   0  0  0  0  0  0           0  0  0
    4.5927   -2.0410    0.0000 C   0  0  0  0  0  0           0  0  0
    3.8030   -2.2768    0.0000 C   0  0  0  0  0  0           0  0  0
    3.0581   -3.5152    0.0000 C   0  0  0  0  0  0           0  0  0
    3.0563   -1.8622    0.0000 C   0  0  0  0  0  0           0  0  0
    4.8042   -1.2375    0.0000 O   0  0  0  0  0  0           0  0  0
    4.7667   -4.1708    0.0000 O   0  0  0  0  0  0           0  0  0
    3.0500   -1.0333    0.0000 O   0  0  0  0  0  0           0  0  0
    3.0500   -4.3375    0.0000 O   0  0  0  0  0  0           0  0  0
  9 10  1  0     0  0
 10 11  2  0     0  0
 11 12  1  0     0  0
 13 14  1  0     0  0
  4  6  1  0     0  0
  7  8  1  0     0  0
  2  3  1  0     0  0
 14  6  1  0     0  0
  6 15  1  0     0  0
 15 16  1  0     0  0
 16 13  1  0     0  0
  3  4  1  0     0  0
 10 17  1  0     0  0
 17 13  2  0     0  0
  4  5  1  0     0  0
 16 18  2  0     0  0
 18 11  1  0     0  0
  5  1  1  0     0  0
 15 19  2  0     0  0
  1  2  1  0     0  0
 14 20  2  0     0  0
  7 12  2  0     0  0
 18 21  1  0     0  0
  8  9  2  0     0  0
 17 22  1  0     0  0
M  END
>  <prID>
837

>  <IDDB>
227464

>  <pIC50_HIV_Integrase>
4.98001184

>  <Q>
-2.969466628

>  <Activity_Integrase>
Inactive_Integrase

NA
NA
NA
NA
$$$$

  Accelrys05311914302D 1   1.00000     0.00000     0

 31 35  0     0  0            999 V2000
    9.3277   -2.7102    0.0000 C   0  0  0  0  0  0           0  0  0
    8.9192   -3.4297    0.0000 C   0  0  0  0  0  0           0  0  0
    9.3380   -4.1411    0.0000 C   0  0  0  0  0  0           0  0  0
   10.1651   -4.1342    0.0000 C   0  0  0  0  0  0           0  0  0
   10.5716   -3.4099    0.0000 C   0  0  0  0  0  0           0  0  0
   10.1505   -2.7015    0.0000 C   0  0  0  0  0  0           0  0  0
    6.8417   -1.3342    0.0000 C   0  0  0  0  0  0           0  0  0
    6.4545   -2.0626    0.0000 C   0  0  3  0  0  0           0  0  0
    6.8915   -2.7574    0.0000 C   0  0  0  0  0  0           0  0  0
    7.7119   -2.7311    0.0000 C   0  0  0  0  0  0           0  0  0
    8.0991   -2.0026    0.0000 N   0  0  3  0  0  0           0  0  0
    7.6660   -1.3005    0.0000 C   0  0  0  0  0  0           0  0  0
    5.6270   -2.0696    0.0000 N   0  0  3  0  0  0           0  0  0
    1.4833   -1.6250    0.0000 C   0  0  0  0  0  0           0  0  0
    1.4833   -2.4500    0.0000 C   0  0  0  0  0  0           0  0  0
    2.1954   -2.8583    0.0000 N   0  0  0  0  0  0           0  0  0
    2.9074   -2.4500    0.0000 C   0  0  0  0  0  0           0  0  0
    2.9074   -1.6250    0.0000 C   0  0  0  0  0  0           0  0  0
    2.1954   -1.2083    0.0000 N   0  0  0  0  0  0           0  0  0
    4.3450   -2.4461    0.0000 C   0  0  0  0  0  0           0  0  0
    5.1223   -2.7224    0.0000 C   0  0  0  0  0  0           0  0  0
    5.1594   -1.3868    0.0000 C   0  0  0  0  0  0           0  0  0
    4.3697   -1.6227    0.0000 C   0  0  0  0  0  0           0  0  0
    3.6247   -2.8610    0.0000 C   0  0  0  0  0  0           0  0  0
    3.6229   -1.2080    0.0000 C   0  0  0  0  0  0           0  0  0
    5.3708   -0.5833    0.0000 O   0  0  0  0  0  0           0  0  0
    5.3333   -3.5167    0.0000 O   0  0  0  0  0  0           0  0  0
    3.6167   -0.3792    0.0000 O   0  0  0  0  0  0           0  0  0
    3.6167   -3.6833    0.0000 O   0  0  0  0  0  0           0  0  0
    8.9208   -2.0000    0.0000 C   0  0  0  0  0  0           0  0  0
    9.3292   -1.2833    0.0000 O   0  0  0  0  0  0           0  0  0
  4  5  1  0     0  0
  2  3  1  0     0  0
 14 19  2  0     0  0
 15 16  2  0     0  0
 16 17  1  0     0  0
 17 18  2  0     0  0
 18 19  1  0     0  0
 20 21  1  0     0  0
  5  6  2  0     0  0
  7 12  1  0     0  0
  8  9  1  0     0  0
  9 10  1  0     0  0
 21 13  1  0     0  0
 13 22  1  0     0  0
 22 23  1  0     0  0
 23 20  1  0     0  0
 10 11  1  0     0  0
 17 24  1  0     0  0
 24 20  2  0     0  0
 11 12  1  0     0  0
 23 25  2  0     0  0
 25 18  1  0     0  0
  6  1  1  0     0  0
 22 26  2  0     0  0
  8 13  1  0     0  0
 21 27  2  0     0  0
 14 15  1  0     0  0
 25 28  1  0     0  0
  7  8  1  0     0  0
 24 29  1  0     0  0
  1  2  2  0     0  0
 11 30  1  0     0  0
 30  1  1  0     0  0
  3  4  2  0     0  0
 30 31  2  0     0  0
M  END
>  <prID>
838

>  <IDDB>
227466

>  <pIC50_HIV_Integrase>
5.619969752

>  <Q>
-1.990055771

>  <Activity_Integrase>
Inactive_Integrase

NA
NA
NA
NA
$$$$

  Accelrys05311914302D 1   1.00000     0.00000     0

 24 27  0     0  0            999 V2000
    7.1648   -2.1444    0.0000 C   0  0  0  0  0  0           0  0  0
    7.5760   -2.8596    0.0000 C   0  0  3  0  0  0           0  0  0
    8.3968   -2.8586    0.0000 C   0  0  0  0  0  0           0  0  0
    8.8105   -2.1497    0.0000 C   0  0  0  0  0  0           0  0  0
    8.3992   -1.4345    0.0000 C   0  0  0  0  0  0           0  0  0
    7.5743   -1.4283    0.0000 C   0  0  0  0  0  0           0  0  0
    7.1583   -3.5708    0.0000 C   0  0  0  0  0  0           0  0  0
    6.3270   -3.5738    0.0000 N   0  0  3  0  0  0           0  0  0
    2.1833   -3.1292    0.0000 C   0  0  0  0  0  0           0  0  0
    2.1833   -3.9542    0.0000 C   0  0  0  0  0  0           0  0  0
    2.8954   -4.3625    0.0000 N   0  0  0  0  0  0           0  0  0
    3.6074   -3.9542    0.0000 C   0  0  0  0  0  0           0  0  0
    3.6074   -3.1292    0.0000 C   0  0  0  0  0  0           0  0  0
    2.8954   -2.7125    0.0000 N   0  0  0  0  0  0           0  0  0
    5.0450   -3.9502    0.0000 C   0  0  0  0  0  0           0  0  0
    5.8223   -4.2266    0.0000 C   0  0  0  0  0  0           0  0  0
    5.8594   -2.8910    0.0000 C   0  0  0  0  0  0           0  0  0
    5.0697   -3.1268    0.0000 C   0  0  0  0  0  0           0  0  0
    4.3247   -4.3652    0.0000 C   0  0  0  0  0  0           0  0  0
    4.3229   -2.7122    0.0000 C   0  0  0  0  0  0           0  0  0
    6.0708   -2.0875    0.0000 O   0  0  0  0  0  0           0  0  0
    6.0333   -5.0208    0.0000 O   0  0  0  0  0  0           0  0  0
    4.3167   -1.8833    0.0000 O   0  0  0  0  0  0           0  0  0
    4.3167   -5.1875    0.0000 O   0  0  0  0  0  0           0  0  0
  9 14  2  0     0  0
 10 11  2  0     0  0
 11 12  1  0     0  0
 12 13  2  0     0  0
 13 14  1  0     0  0
 15 16  1  0     0  0
  2  7  1  0     0  0
  1  2  1  0     0  0
  7  8  1  0     0  0
  9 10  1  0     0  0
 16  8  1  0     0  0
  8 17  1  0     0  0
 17 18  1  0     0  0
 18 15  1  0     0  0
  1  6  1  0     0  0
 12 19  1  0     0  0
 19 15  2  0     0  0
  2  3  1  0     0  0
 18 20  2  0     0  0
 20 13  1  0     0  0
  3  4  1  0     0  0
 17 21  2  0     0  0
  4  5  1  0     0  0
 16 22  2  0     0  0
  5  6  1  0     0  0
 20 23  1  0     0  0
 19 24  1  0     0  0
M  END
>  <prID>
839

>  <IDDB>
227467

>  <pIC50_HIV_Integrase>
5.659952682

>  <Q>
-3.155921774

>  <Activity_Integrase>
Inactive_Integrase

NA
NA
NA
NA
$$$$

  Accelrys05311914302D 1   1.00000     0.00000     0

 25 28  0     0  0            999 V2000
    7.0648    0.0364    0.0000 C   0  0  0  0  0  0           0  0  0
    6.6496   -0.6765    0.0000 C   0  0  0  0  0  0           0  0  0
    7.0594   -1.3877    0.0000 C   0  0  0  0  0  0           0  0  0
    7.8802   -1.3931    0.0000 C   0  0  0  0  0  0           0  0  0
    8.2954   -0.6802    0.0000 C   0  0  0  0  0  0           0  0  0
    7.8898    0.0382    0.0000 C   0  0  0  0  0  0           0  0  0
    6.6417   -2.1000    0.0000 C   0  0  2  0  0  0           0  0  0
    5.8103   -2.1030    0.0000 N   0  0  3  0  0  0           0  0  0
    1.6667   -1.6583    0.0000 C   0  0  0  0  0  0           0  0  0
    1.6667   -2.4833    0.0000 C   0  0  0  0  0  0           0  0  0
    2.3787   -2.8917    0.0000 N   0  0  0  0  0  0           0  0  0
    3.0907   -2.4833    0.0000 C   0  0  0  0  0  0           0  0  0
    3.0907   -1.6583    0.0000 C   0  0  0  0  0  0           0  0  0
    2.3787   -1.2417    0.0000 N   0  0  0  0  0  0           0  0  0
    4.5283   -2.4794    0.0000 C   0  0  0  0  0  0           0  0  0
    5.3056   -2.7558    0.0000 C   0  0  0  0  0  0           0  0  0
    5.3427   -1.4202    0.0000 C   0  0  0  0  0  0           0  0  0
    4.5530   -1.6560    0.0000 C   0  0  0  0  0  0           0  0  0
    3.8081   -2.8944    0.0000 C   0  0  0  0  0  0           0  0  0
    3.8063   -1.2414    0.0000 C   0  0  0  0  0  0           0  0  0
    5.5542   -0.6167    0.0000 O   0  0  0  0  0  0           0  0  0
    5.5167   -3.5500    0.0000 O   0  0  0  0  0  0           0  0  0
    3.8000   -0.4125    0.0000 O   0  0  0  0  0  0           0  0  0
    3.8000   -3.7167    0.0000 O   0  0  0  0  0  0           0  0  0
    7.0500   -2.6833    0.0000 C   0  0  0  0  0  0           0  0  0
 10 11  2  0     0  0
 11 12  1  0     0  0
 12 13  2  0     0  0
 13 14  1  0     0  0
 15 16  1  0     0  0
  7  3  1  1     0  0
  1  2  2  0     0  0
  7  8  1  0     0  0
  9 10  1  0     0  0
 16  8  1  0     0  0
  8 17  1  0     0  0
 17 18  1  0     0  0
 18 15  1  0     0  0
  1  6  1  0     0  0
 12 19  1  0     0  0
 19 15  2  0     0  0
  2  3  1  0     0  0
 18 20  2  0     0  0
 20 13  1  0     0  0
  3  4  2  0     0  0
 17 21  2  0     0  0
  4  5  1  0     0  0
 16 22  2  0     0  0
  5  6  2  0     0  0
 20 23  1  0     0  0
 19 24  1  0     0  0
  9 14  2  0     0  0
  7 25  1  0     0  0
M  END
>  <prID>
840

>  <IDDB>
227468

>  <pIC50_HIV_Integrase>
5.83499879

>  <Q>
-1.267133856

>  <Activity_Integrase>
Inactive_Integrase

NA
NA
NA
NA
$$$$

  Accelrys05311914302D 1   1.00000     0.00000     0

 26 30  0     0  0            999 V2000
    7.5585   -7.1243    0.0000 C   0  0  0  0  0  0           0  0  0
    8.0888   -7.7563    0.0000 O   0  0  0  0  0  0           0  0  0
    8.8545   -7.4490    0.0000 C   0  0  0  0  0  0           0  0  0
    8.7972   -6.6234    0.0000 O   0  0  0  0  0  0           0  0  0
    7.9969   -6.4268    0.0000 C   0  0  0  0  0  0           0  0  0
    7.5116   -5.7010    0.0000 C   0  0  0  0  0  0           0  0  0
    6.6870   -5.7282    0.0000 C   0  0  0  0  0  0           0  0  0
    6.3024   -6.4533    0.0000 C   0  0  0  0  0  0           0  0  0
    6.7339   -7.1515    0.0000 C   0  0  0  0  0  0           0  0  0
    5.4770   -6.4780    0.0000 N   0  0  3  0  0  0           0  0  0
    1.3333   -6.0333    0.0000 C   0  0  0  0  0  0           0  0  0
    1.3333   -6.8583    0.0000 C   0  0  0  0  0  0           0  0  0
    2.0454   -7.2667    0.0000 N   0  0  0  0  0  0           0  0  0
    2.7574   -6.8583    0.0000 C   0  0  0  0  0  0           0  0  0
    2.7574   -6.0333    0.0000 C   0  0  0  0  0  0           0  0  0
    2.0454   -5.6167    0.0000 N   0  0  0  0  0  0           0  0  0
    4.1950   -6.8544    0.0000 C   0  0  0  0  0  0           0  0  0
    4.9723   -7.1308    0.0000 C   0  0  0  0  0  0           0  0  0
    5.0094   -5.7952    0.0000 C   0  0  0  0  0  0           0  0  0
    4.2197   -6.0310    0.0000 C   0  0  0  0  0  0           0  0  0
    3.4747   -7.2694    0.0000 C   0  0  0  0  0  0           0  0  0
    3.4729   -5.6164    0.0000 C   0  0  0  0  0  0           0  0  0
    5.2208   -4.9917    0.0000 O   0  0  0  0  0  0           0  0  0
    5.1833   -7.9250    0.0000 O   0  0  0  0  0  0           0  0  0
    3.4667   -4.7875    0.0000 O   0  0  0  0  0  0           0  0  0
    3.4667   -8.0917    0.0000 O   0  0  0  0  0  0           0  0  0
  2  3  1  0     0  0
  3  4  1  0     0  0
 11 16  2  0     0  0
 12 13  2  0     0  0
 13 14  1  0     0  0
 14 15  2  0     0  0
 15 16  1  0     0  0
 17 18  1  0     0  0
  6  5  1  0     0  0
  7  8  1  0     0  0
  8  9  2  0     0  0
  9  1  1  0     0  0
 18 10  1  0     0  0
 10 19  1  0     0  0
 19 20  1  0     0  0
 20 17  1  0     0  0
  4  5  1  0     0  0
 14 21  1  0     0  0
 21 17  2  0     0  0
 10  8  1  0     0  0
 20 22  2  0     0  0
 22 15  1  0     0  0
 11 12  1  0     0  0
 19 23  2  0     0  0
  5  1  2  0     0  0
 18 24  2  0     0  0
  6  7  2  0     0  0
 22 25  1  0     0  0
  1  2  1  0     0  0
 21 26  1  0     0  0
M  END
>  <prID>
841

>  <IDDB>
227470

>  <pIC50_HIV_Integrase>
5

>  <Q>
-1.803753472

>  <Activity_Integrase>
Inactive_Integrase

NA
NA
NA
NA
$$$$

  Accelrys05311914302D 1   1.00000     0.00000     0

 27 31  0     0  0            999 V2000
    6.5287    0.5073    0.0000 C   0  0  0  0  0  0           0  0  0
    7.3459    0.6206    0.0000 O   0  0  0  0  0  0           0  0  0
    7.4925    1.4326    0.0000 C   0  0  0  0  0  0           0  0  0
    6.7627    1.8228    0.0000 O   0  0  0  0  0  0           0  0  0
    6.1708    1.2493    0.0000 C   0  0  0  0  0  0           0  0  0
    5.2981    1.2239    0.0000 C   0  0  0  0  0  0           0  0  0
    4.8829    0.5110    0.0000 C   0  0  0  0  0  0           0  0  0
    5.2927   -0.2002    0.0000 C   0  0  0  0  0  0           0  0  0
    6.1135   -0.2056    0.0000 C   0  0  0  0  0  0           0  0  0
    4.8750   -0.9125    0.0000 C   0  0  0  0  0  0           0  0  0
    4.0436   -0.9155    0.0000 N   0  0  3  0  0  0           0  0  0
   -0.1000   -0.4708    0.0000 C   0  0  0  0  0  0           0  0  0
   -0.1000   -1.2958    0.0000 C   0  0  0  0  0  0           0  0  0
    0.6120   -1.7042    0.0000 N   0  0  0  0  0  0           0  0  0
    1.3240   -1.2958    0.0000 C   0  0  0  0  0  0           0  0  0
    1.3240   -0.4708    0.0000 C   0  0  0  0  0  0           0  0  0
    0.6120   -0.0542    0.0000 N   0  0  0  0  0  0           0  0  0
    2.7616   -1.2919    0.0000 C   0  0  0  0  0  0           0  0  0
    3.5390   -1.5683    0.0000 C   0  0  0  0  0  0           0  0  0
    3.5760   -0.2327    0.0000 C   0  0  0  0  0  0           0  0  0
    2.7864   -0.4685    0.0000 C   0  0  0  0  0  0           0  0  0
    2.0414   -1.7069    0.0000 C   0  0  0  0  0  0           0  0  0
    2.0396   -0.0539    0.0000 C   0  0  0  0  0  0           0  0  0
    3.7875    0.5708    0.0000 O   0  0  0  0  0  0           0  0  0
    3.7500   -2.3625    0.0000 O   0  0  0  0  0  0           0  0  0
    2.0333    0.7750    0.0000 O   0  0  0  0  0  0           0  0  0
    2.0333   -2.5292    0.0000 O   0  0  0  0  0  0           0  0  0
  2  3  1  0     0  0
  3  4  1  0     0  0
  6  5  1  0     0  0
 12 17  2  0     0  0
 13 14  2  0     0  0
 14 15  1  0     0  0
 15 16  2  0     0  0
 16 17  1  0     0  0
 18 19  1  0     0  0
  7  8  1  0     0  0
  8  9  2  0     0  0
  9  1  1  0     0  0
  4  5  1  0     0  0
 19 11  1  0     0  0
 11 20  1  0     0  0
 20 21  1  0     0  0
 21 18  1  0     0  0
 10  8  1  0     0  0
 15 22  1  0     0  0
 22 18  2  0     0  0
  5  1  2  0     0  0
 21 23  2  0     0  0
 23 16  1  0     0  0
 10 11  1  0     0  0
 20 24  2  0     0  0
 12 13  1  0     0  0
 19 25  2  0     0  0
  6  7  2  0     0  0
 23 26  1  0     0  0
  1  2  1  0     0  0
 22 27  1  0     0  0
M  END
>  <prID>
842

>  <IDDB>
227471

>  <pIC50_HIV_Integrase>
6.250263684

>  <Q>
-1.751193415

>  <Activity_Integrase>
Active_Integrase

NA
NA
NA
NA
$$$$

  Accelrys05311914302D 1   1.00000     0.00000     0

 28 32  0     0  0            999 V2000
    7.3424   -0.8919    0.0000 C   0  0  0  0  0  0           0  0  0
    7.8599   -1.5344    0.0000 O   0  0  0  0  0  0           0  0  0
    8.6317   -1.2426    0.0000 C   0  0  0  0  0  0           0  0  0
    8.5909   -0.4160    0.0000 O   0  0  0  0  0  0           0  0  0
    7.7947   -0.2034    0.0000 C   0  0  0  0  0  0           0  0  0
    7.3241    0.5320    0.0000 C   0  0  0  0  0  0           0  0  0
    6.4991    0.5214    0.0000 C   0  0  0  0  0  0           0  0  0
    6.1000   -0.1958    0.0000 C   0  0  0  0  0  0           0  0  0
    6.5175   -0.9025    0.0000 C   0  0  0  0  0  0           0  0  0
    4.0436   -0.9155    0.0000 N   0  0  3  0  0  0           0  0  0
   -0.1000   -0.4708    0.0000 C   0  0  0  0  0  0           0  0  0
   -0.1000   -1.2958    0.0000 C   0  0  0  0  0  0           0  0  0
    0.6120   -1.7042    0.0000 N   0  0  0  0  0  0           0  0  0
    1.3240   -1.2958    0.0000 C   0  0  0  0  0  0           0  0  0
    1.3240   -0.4708    0.0000 C   0  0  0  0  0  0           0  0  0
    0.6120   -0.0542    0.0000 N   0  0  0  0  0  0           0  0  0
    2.7616   -1.2919    0.0000 C   0  0  0  0  0  0           0  0  0
    3.5390   -1.5683    0.0000 C   0  0  0  0  0  0           0  0  0
    3.5760   -0.2327    0.0000 C   0  0  0  0  0  0           0  0  0
    2.7864   -0.4685    0.0000 C   0  0  0  0  0  0           0  0  0
    2.0414   -1.7069    0.0000 C   0  0  0  0  0  0           0  0  0
    2.0396   -0.0539    0.0000 C   0  0  0  0  0  0           0  0  0
    3.7875    0.5708    0.0000 O   0  0  0  0  0  0           0  0  0
    3.7500   -2.3625    0.0000 O   0  0  0  0  0  0           0  0  0
    2.0333    0.7750    0.0000 O   0  0  0  0  0  0           0  0  0
    2.0333   -2.5292    0.0000 O   0  0  0  0  0  0           0  0  0
    4.8667   -0.9125    0.0000 C   0  0  0  0  0  0           0  0  0
    5.2750   -0.1958    0.0000 C   0  0  0  0  0  0           0  0  0
 11 16  2  0     0  0
 12 13  2  0     0  0
 13 14  1  0     0  0
 14 15  2  0     0  0
 15 16  1  0     0  0
 17 18  1  0     0  0
  6  5  1  0     0  0
  7  8  1  0     0  0
  8  9  2  0     0  0
  9  1  1  0     0  0
 18 10  1  0     0  0
 10 19  1  0     0  0
 19 20  1  0     0  0
 20 17  1  0     0  0
  4  5  1  0     0  0
 14 21  1  0     0  0
 21 17  2  0     0  0
 11 12  1  0     0  0
 20 22  2  0     0  0
 22 15  1  0     0  0
  5  1  2  0     0  0
 19 23  2  0     0  0
  6  7  2  0     0  0
 18 24  2  0     0  0
  1  2  1  0     0  0
 22 25  1  0     0  0
 21 26  1  0     0  0
  2  3  1  0     0  0
 10 27  1  0     0  0
  3  4  1  0     0  0
 27 28  1  0     0  0
 28  8  1  0     0  0
M  END
>  <prID>
843

>  <IDDB>
227472

>  <pIC50_HIV_Integrase>
5.849857838

>  <Q>
-2.058119856

>  <Activity_Integrase>
Inactive_Integrase

NA
NA
NA
NA
$$$$

  Accelrys05311914302D 1   1.00000     0.00000     0

 26 29  0     0  0            999 V2000
    5.1921    0.5368    0.0000 C   0  0  0  0  0  0           0  0  0
    5.6020   -0.1819    0.0000 C   0  0  0  0  0  0           0  0  0
    6.4275   -0.1852    0.0000 C   0  0  0  0  0  0           0  0  0
    6.8441    0.5294    0.0000 C   0  0  0  0  0  0           0  0  0
    6.4291    1.2488    0.0000 C   0  0  0  0  0  0           0  0  0
    5.6050    1.2486    0.0000 C   0  0  0  0  0  0           0  0  0
    5.1833   -0.8917    0.0000 C   0  0  0  0  0  0           0  0  0
    4.0436   -0.9155    0.0000 N   0  0  3  0  0  0           0  0  0
   -0.1000   -0.4708    0.0000 C   0  0  0  0  0  0           0  0  0
   -0.1000   -1.2958    0.0000 C   0  0  0  0  0  0           0  0  0
    0.6120   -1.7042    0.0000 N   0  0  0  0  0  0           0  0  0
    1.3240   -1.2958    0.0000 C   0  0  0  0  0  0           0  0  0
    1.3240   -0.4708    0.0000 C   0  0  0  0  0  0           0  0  0
    0.6120   -0.0542    0.0000 N   0  0  0  0  0  0           0  0  0
    2.7616   -1.2919    0.0000 C   0  0  0  0  0  0           0  0  0
    3.5390   -1.5683    0.0000 C   0  0  0  0  0  0           0  0  0
    3.5760   -0.2327    0.0000 C   0  0  0  0  0  0           0  0  0
    2.7864   -0.4685    0.0000 C   0  0  0  0  0  0           0  0  0
    2.0414   -1.7069    0.0000 C   0  0  0  0  0  0           0  0  0
    2.0396   -0.0539    0.0000 C   0  0  0  0  0  0           0  0  0
    3.7875    0.5708    0.0000 O   0  0  0  0  0  0           0  0  0
    3.7500   -2.3625    0.0000 O   0  0  0  0  0  0           0  0  0
    2.0333    0.7750    0.0000 O   0  0  0  0  0  0           0  0  0
    2.0333   -2.5292    0.0000 O   0  0  0  0  0  0           0  0  0
    4.3667    0.5375    0.0000 O   0  0  0  0  0  0           0  0  0
    3.9500    1.2542    0.0000 C   0  0  0  0  0  0           0  0  0
 12 13  2  0     0  0
 13 14  1  0     0  0
 15 16  1  0     0  0
  2  7  1  0     0  0
  3  4  2  0     0  0
  9 10  1  0     0  0
 16  8  1  0     0  0
  8 17  1  0     0  0
 17 18  1  0     0  0
 18 15  1  0     0  0
  4  5  1  0     0  0
 12 19  1  0     0  0
 19 15  2  0     0  0
  2  3  1  0     0  0
 18 20  2  0     0  0
 20 13  1  0     0  0
  5  6  2  0     0  0
 17 21  2  0     0  0
  6  1  1  0     0  0
 16 22  2  0     0  0
  1  2  2  0     0  0
 20 23  1  0     0  0
  9 14  2  0     0  0
 19 24  1  0     0  0
  8  7  1  0     0  0
 10 11  2  0     0  0
  1 25  1  0     0  0
 11 12  1  0     0  0
 25 26  1  0     0  0
M  END
>  <prID>
844

>  <IDDB>
227473

>  <pIC50_HIV_Integrase>
6.089909454

>  <Q>
-1.127090624

>  <Activity_Integrase>
Active_Integrase

NA
NA
NA
NA
$$$$

  Accelrys05311914302D 1   1.00000     0.00000     0

 26 29  0     0  0            999 V2000
    6.4630   -1.0548    0.0000 C   0  0  0  0  0  0           0  0  0
    6.8729   -1.7735    0.0000 C   0  0  0  0  0  0           0  0  0
    7.6983   -1.7769    0.0000 C   0  0  0  0  0  0           0  0  0
    8.1149   -1.0623    0.0000 C   0  0  0  0  0  0           0  0  0
    7.6999   -0.3429    0.0000 C   0  0  0  0  0  0           0  0  0
    6.8758   -0.3430    0.0000 C   0  0  0  0  0  0           0  0  0
    6.4542   -2.4833    0.0000 C   0  0  0  0  0  0           0  0  0
    5.7645   -2.5071    0.0000 N   0  0  3  0  0  0           0  0  0
    1.6208   -2.0625    0.0000 C   0  0  0  0  0  0           0  0  0
    1.6208   -2.8875    0.0000 C   0  0  0  0  0  0           0  0  0
    2.3329   -3.2958    0.0000 N   0  0  0  0  0  0           0  0  0
    3.0449   -2.8875    0.0000 C   0  0  0  0  0  0           0  0  0
    3.0449   -2.0625    0.0000 C   0  0  0  0  0  0           0  0  0
    2.3329   -1.6458    0.0000 N   0  0  0  0  0  0           0  0  0
    4.4825   -2.8836    0.0000 C   0  0  0  0  0  0           0  0  0
    5.2598   -3.1599    0.0000 C   0  0  0  0  0  0           0  0  0
    5.2969   -1.8243    0.0000 C   0  0  0  0  0  0           0  0  0
    4.5072   -2.0602    0.0000 C   0  0  0  0  0  0           0  0  0
    3.7622   -3.2985    0.0000 C   0  0  0  0  0  0           0  0  0
    3.7604   -1.6455    0.0000 C   0  0  0  0  0  0           0  0  0
    5.5083   -1.0208    0.0000 O   0  0  0  0  0  0           0  0  0
    5.4708   -3.9542    0.0000 O   0  0  0  0  0  0           0  0  0
    3.7542   -0.8167    0.0000 O   0  0  0  0  0  0           0  0  0
    3.7542   -4.1208    0.0000 O   0  0  0  0  0  0           0  0  0
    8.1042    0.3750    0.0000 O   0  0  0  0  0  0           0  0  0
    8.9292    0.3750    0.0000 C   0  0  0  0  0  0           0  0  0
 12 13  2  0     0  0
 13 14  1  0     0  0
 15 16  1  0     0  0
  2  7  1  0     0  0
  3  4  2  0     0  0
  9 10  1  0     0  0
 16  8  1  0     0  0
  8 17  1  0     0  0
 17 18  1  0     0  0
 18 15  1  0     0  0
  4  5  1  0     0  0
 12 19  1  0     0  0
 19 15  2  0     0  0
  2  3  1  0     0  0
 18 20  2  0     0  0
 20 13  1  0     0  0
  5  6  2  0     0  0
 17 21  2  0     0  0
  6  1  1  0     0  0
 16 22  2  0     0  0
  1  2  2  0     0  0
 20 23  1  0     0  0
  9 14  2  0     0  0
 19 24  1  0     0  0
  8  7  1  0     0  0
 10 11  2  0     0  0
  5 25  1  0     0  0
 11 12  1  0     0  0
 25 26  1  0     0  0
M  END
>  <prID>
845

>  <IDDB>
227474

>  <pIC50_HIV_Integrase>
6.250263684

>  <Q>
-1.1239505

>  <Activity_Integrase>
Active_Integrase

NA
NA
NA
NA
$$$$

  Accelrys05311914302D 1   1.00000     0.00000     0

 28 31  0     0  0            999 V2000
    7.2171   -5.4048    0.0000 C   0  0  0  0  0  0           0  0  0
    7.6270   -6.1235    0.0000 C   0  0  0  0  0  0           0  0  0
    8.4525   -6.1269    0.0000 C   0  0  0  0  0  0           0  0  0
    8.8691   -5.4123    0.0000 C   0  0  0  0  0  0           0  0  0
    8.4541   -4.6929    0.0000 C   0  0  0  0  0  0           0  0  0
    7.6300   -4.6930    0.0000 C   0  0  0  0  0  0           0  0  0
    7.2083   -6.8333    0.0000 C   0  0  0  0  0  0           0  0  0
    6.0686   -6.8571    0.0000 N   0  0  3  0  0  0           0  0  0
    1.9250   -6.4125    0.0000 C   0  0  0  0  0  0           0  0  0
    1.9250   -7.2375    0.0000 C   0  0  0  0  0  0           0  0  0
    2.6370   -7.6458    0.0000 N   0  0  0  0  0  0           0  0  0
    3.3490   -7.2375    0.0000 C   0  0  0  0  0  0           0  0  0
    3.3490   -6.4125    0.0000 C   0  0  0  0  0  0           0  0  0
    2.6370   -5.9958    0.0000 N   0  0  0  0  0  0           0  0  0
    4.7866   -7.2336    0.0000 C   0  0  0  0  0  0           0  0  0
    5.5640   -7.5099    0.0000 C   0  0  0  0  0  0           0  0  0
    5.6010   -6.1743    0.0000 C   0  0  0  0  0  0           0  0  0
    4.8114   -6.4102    0.0000 C   0  0  0  0  0  0           0  0  0
    4.0664   -7.6485    0.0000 C   0  0  0  0  0  0           0  0  0
    4.0646   -5.9955    0.0000 C   0  0  0  0  0  0           0  0  0
    5.8125   -5.3708    0.0000 O   0  0  0  0  0  0           0  0  0
    5.7750   -8.3042    0.0000 O   0  0  0  0  0  0           0  0  0
    4.0583   -5.1667    0.0000 O   0  0  0  0  0  0           0  0  0
    4.0583   -8.4708    0.0000 O   0  0  0  0  0  0           0  0  0
    6.3917   -5.4042    0.0000 O   0  0  0  0  0  0           0  0  0
    5.9750   -4.6875    0.0000 C   0  0  0  0  0  0           0  0  0
    8.8583   -6.8375    0.0000 O   0  0  0  0  0  0           0  0  0
    9.6833   -6.8375    0.0000 C   0  0  0  0  0  0           0  0  0
 15 16  1  0     0  0
  2  7  1  0     0  0
  3  4  2  0     0  0
  9 10  1  0     0  0
 16  8  1  0     0  0
  8 17  1  0     0  0
 17 18  1  0     0  0
 18 15  1  0     0  0
  4  5  1  0     0  0
 12 19  1  0     0  0
 19 15  2  0     0  0
  2  3  1  0     0  0
 18 20  2  0     0  0
 20 13  1  0     0  0
  5  6  2  0     0  0
 17 21  2  0     0  0
  6  1  1  0     0  0
 16 22  2  0     0  0
  1  2  2  0     0  0
 20 23  1  0     0  0
  9 14  2  0     0  0
 19 24  1  0     0  0
  8  7  1  0     0  0
 10 11  2  0     0  0
  1 25  1  0     0  0
 11 12  1  0     0  0
 25 26  1  0     0  0
 12 13  2  0     0  0
  3 27  1  0     0  0
 13 14  1  0     0  0
 27 28  1  0     0  0
M  END
>  <prID>
846

>  <IDDB>
227475

>  <pIC50_HIV_Integrase>
5.7000571

>  <Q>
-1.391221126

>  <Activity_Integrase>
Inactive_Integrase

NA
NA
NA
NA
$$$$

  Accelrys05311914302D 1   1.00000     0.00000     0

 28 31  0     0  0            999 V2000
    7.2171   -5.4048    0.0000 C   0  0  0  0  0  0           0  0  0
    7.6270   -6.1235    0.0000 C   0  0  0  0  0  0           0  0  0
    8.4525   -6.1269    0.0000 C   0  0  0  0  0  0           0  0  0
    8.8691   -5.4123    0.0000 C   0  0  0  0  0  0           0  0  0
    8.4541   -4.6929    0.0000 C   0  0  0  0  0  0           0  0  0
    7.6300   -4.6930    0.0000 C   0  0  0  0  0  0           0  0  0
    7.2083   -6.8333    0.0000 C   0  0  0  0  0  0           0  0  0
    6.0686   -6.8571    0.0000 N   0  0  3  0  0  0           0  0  0
    1.9250   -6.4125    0.0000 C   0  0  0  0  0  0           0  0  0
    1.9250   -7.2375    0.0000 C   0  0  0  0  0  0           0  0  0
    2.6370   -7.6458    0.0000 N   0  0  0  0  0  0           0  0  0
    3.3490   -7.2375    0.0000 C   0  0  0  0  0  0           0  0  0
    3.3490   -6.4125    0.0000 C   0  0  0  0  0  0           0  0  0
    2.6370   -5.9958    0.0000 N   0  0  0  0  0  0           0  0  0
    4.7866   -7.2336    0.0000 C   0  0  0  0  0  0           0  0  0
    5.5640   -7.5099    0.0000 C   0  0  0  0  0  0           0  0  0
    5.6010   -6.1743    0.0000 C   0  0  0  0  0  0           0  0  0
    4.8114   -6.4102    0.0000 C   0  0  0  0  0  0           0  0  0
    4.0664   -7.6485    0.0000 C   0  0  0  0  0  0           0  0  0
    4.0646   -5.9955    0.0000 C   0  0  0  0  0  0           0  0  0
    5.8125   -5.3708    0.0000 O   0  0  0  0  0  0           0  0  0
    5.7750   -8.3042    0.0000 O   0  0  0  0  0  0           0  0  0
    4.0583   -5.1667    0.0000 O   0  0  0  0  0  0           0  0  0
    4.0583   -8.4708    0.0000 O   0  0  0  0  0  0           0  0  0
    6.3917   -5.4042    0.0000 O   0  0  0  0  0  0           0  0  0
    5.9750   -4.6875    0.0000 C   0  0  0  0  0  0           0  0  0
    7.2125   -3.9750    0.0000 O   0  0  0  0  0  0           0  0  0
    6.3875   -3.9708    0.0000 C   0  0  0  0  0  0           0  0  0
 15 16  1  0     0  0
  2  7  1  0     0  0
  3  4  2  0     0  0
  9 10  1  0     0  0
 16  8  1  0     0  0
  8 17  1  0     0  0
 17 18  1  0     0  0
 18 15  1  0     0  0
  4  5  1  0     0  0
 12 19  1  0     0  0
 19 15  2  0     0  0
  2  3  1  0     0  0
 18 20  2  0     0  0
 20 13  1  0     0  0
  5  6  2  0     0  0
 17 21  2  0     0  0
  6  1  1  0     0  0
 16 22  2  0     0  0
  1  2  2  0     0  0
 20 23  1  0     0  0
  9 14  2  0     0  0
 19 24  1  0     0  0
  8  7  1  0     0  0
 10 11  2  0     0  0
  1 25  1  0     0  0
 11 12  1  0     0  0
 25 26  1  0     0  0
 12 13  2  0     0  0
  6 27  1  0     0  0
 13 14  1  0     0  0
 27 28  1  0     0  0
M  END
>  <prID>
847

>  <IDDB>
227476

>  <pIC50_HIV_Integrase>
6.369572125

>  <Q>
-1.357114927

>  <Activity_Integrase>
Active_Integrase

NA
NA
NA
NA
$$$$

  Accelrys05311914302D 1   1.00000     0.00000     0

 28 31  0     0  0            999 V2000
    7.2171   -5.4048    0.0000 C   0  0  0  0  0  0           0  0  0
    7.6270   -6.1235    0.0000 C   0  0  0  0  0  0           0  0  0
    8.4525   -6.1269    0.0000 C   0  0  0  0  0  0           0  0  0
    8.8691   -5.4123    0.0000 C   0  0  0  0  0  0           0  0  0
    8.4541   -4.6929    0.0000 C   0  0  0  0  0  0           0  0  0
    7.6300   -4.6930    0.0000 C   0  0  0  0  0  0           0  0  0
    7.2083   -6.8333    0.0000 C   0  0  0  0  0  0           0  0  0
    6.0686   -6.8571    0.0000 N   0  0  3  0  0  0           0  0  0
    1.9250   -6.4125    0.0000 C   0  0  0  0  0  0           0  0  0
    1.9250   -7.2375    0.0000 C   0  0  0  0  0  0           0  0  0
    2.6370   -7.6458    0.0000 N   0  0  0  0  0  0           0  0  0
    3.3490   -7.2375    0.0000 C   0  0  0  0  0  0           0  0  0
    3.3490   -6.4125    0.0000 C   0  0  0  0  0  0           0  0  0
    2.6370   -5.9958    0.0000 N   0  0  0  0  0  0           0  0  0
    4.7866   -7.2336    0.0000 C   0  0  0  0  0  0           0  0  0
    5.5640   -7.5099    0.0000 C   0  0  0  0  0  0           0  0  0
    5.6010   -6.1743    0.0000 C   0  0  0  0  0  0           0  0  0
    4.8114   -6.4102    0.0000 C   0  0  0  0  0  0           0  0  0
    4.0664   -7.6485    0.0000 C   0  0  0  0  0  0           0  0  0
    4.0646   -5.9955    0.0000 C   0  0  0  0  0  0           0  0  0
    5.8125   -5.3708    0.0000 O   0  0  0  0  0  0           0  0  0
    5.7750   -8.3042    0.0000 O   0  0  0  0  0  0           0  0  0
    4.0583   -5.1667    0.0000 O   0  0  0  0  0  0           0  0  0
    4.0583   -8.4708    0.0000 O   0  0  0  0  0  0           0  0  0
    6.3917   -5.4042    0.0000 O   0  0  0  0  0  0           0  0  0
    5.9750   -4.6875    0.0000 C   0  0  0  0  0  0           0  0  0
    8.8583   -3.9750    0.0000 O   0  0  0  0  0  0           0  0  0
    9.6833   -3.9750    0.0000 C   0  0  0  0  0  0           0  0  0
 15 16  1  0     0  0
  2  7  1  0     0  0
  3  4  2  0     0  0
  9 10  1  0     0  0
 16  8  1  0     0  0
  8 17  1  0     0  0
 17 18  1  0     0  0
 18 15  1  0     0  0
  4  5  1  0     0  0
 12 19  1  0     0  0
 19 15  2  0     0  0
  2  3  1  0     0  0
 18 20  2  0     0  0
 20 13  1  0     0  0
  5  6  2  0     0  0
 17 21  2  0     0  0
  6  1  1  0     0  0
 16 22  2  0     0  0
  1  2  2  0     0  0
 20 23  1  0     0  0
  9 14  2  0     0  0
 19 24  1  0     0  0
  8  7  1  0     0  0
 10 11  2  0     0  0
  1 25  1  0     0  0
 11 12  1  0     0  0
 25 26  1  0     0  0
 12 13  2  0     0  0
  5 27  1  0     0  0
 13 14  1  0     0  0
 27 28  1  0     0  0
M  END
>  <prID>
848

>  <IDDB>
227477

>  <pIC50_HIV_Integrase>
6.369572125

>  <Q>
-1.388080699

>  <Activity_Integrase>
Active_Integrase

NA
NA
NA
NA
$$$$

  Accelrys05311914302D 1   1.00000     0.00000     0

 28 31  0     0  0            999 V2000
    7.2171   -5.4048    0.0000 C   0  0  0  0  0  0           0  0  0
    7.6270   -6.1235    0.0000 C   0  0  0  0  0  0           0  0  0
    8.4525   -6.1269    0.0000 C   0  0  0  0  0  0           0  0  0
    8.8691   -5.4123    0.0000 C   0  0  0  0  0  0           0  0  0
    8.4541   -4.6929    0.0000 C   0  0  0  0  0  0           0  0  0
    7.6300   -4.6930    0.0000 C   0  0  0  0  0  0           0  0  0
    7.2083   -6.8333    0.0000 C   0  0  0  0  0  0           0  0  0
    6.0686   -6.8571    0.0000 N   0  0  3  0  0  0           0  0  0
    1.9250   -6.4125    0.0000 C   0  0  0  0  0  0           0  0  0
    1.9250   -7.2375    0.0000 C   0  0  0  0  0  0           0  0  0
    2.6370   -7.6458    0.0000 N   0  0  0  0  0  0           0  0  0
    3.3490   -7.2375    0.0000 C   0  0  0  0  0  0           0  0  0
    3.3490   -6.4125    0.0000 C   0  0  0  0  0  0           0  0  0
    2.6370   -5.9958    0.0000 N   0  0  0  0  0  0           0  0  0
    4.7866   -7.2336    0.0000 C   0  0  0  0  0  0           0  0  0
    5.5640   -7.5099    0.0000 C   0  0  0  0  0  0           0  0  0
    5.6010   -6.1743    0.0000 C   0  0  0  0  0  0           0  0  0
    4.8114   -6.4102    0.0000 C   0  0  0  0  0  0           0  0  0
    4.0664   -7.6485    0.0000 C   0  0  0  0  0  0           0  0  0
    4.0646   -5.9955    0.0000 C   0  0  0  0  0  0           0  0  0
    5.8125   -5.3708    0.0000 O   0  0  0  0  0  0           0  0  0
    5.7750   -8.3042    0.0000 O   0  0  0  0  0  0           0  0  0
    4.0583   -5.1667    0.0000 O   0  0  0  0  0  0           0  0  0
    4.0583   -8.4708    0.0000 O   0  0  0  0  0  0           0  0  0
    6.3917   -5.4042    0.0000 O   0  0  0  0  0  0           0  0  0
    5.9750   -4.6875    0.0000 C   0  0  0  0  0  0           0  0  0
    9.6917   -5.4083    0.0000 O   0  0  0  0  0  0           0  0  0
   10.2958   -6.3375    0.0000 C   0  0  0  0  0  0           0  0  0
 15 16  1  0     0  0
  2  7  1  0     0  0
  3  4  2  0     0  0
  9 10  1  0     0  0
 16  8  1  0     0  0
  8 17  1  0     0  0
 17 18  1  0     0  0
 18 15  1  0     0  0
  4  5  1  0     0  0
 12 19  1  0     0  0
 19 15  2  0     0  0
  2  3  1  0     0  0
 18 20  2  0     0  0
 20 13  1  0     0  0
  5  6  2  0     0  0
 17 21  2  0     0  0
  6  1  1  0     0  0
 16 22  2  0     0  0
  1  2  2  0     0  0
 20 23  1  0     0  0
  9 14  2  0     0  0
 19 24  1  0     0  0
  8  7  1  0     0  0
 10 11  2  0     0  0
  1 25  1  0     0  0
 11 12  1  0     0  0
 25 26  1  0     0  0
 12 13  2  0     0  0
  4 27  1  0     0  0
 13 14  1  0     0  0
 27 28  1  0     0  0
M  END
>  <prID>
849

>  <IDDB>
227478

>  <pIC50_HIV_Integrase>
6.110138279

>  <Q>
-1.383309554

>  <Activity_Integrase>
Active_Integrase

NA
NA
NA
NA
$$$$

  Accelrys05311914302D 1   1.00000     0.00000     0

 25 28  0     0  0            999 V2000
    7.2171   -5.4048    0.0000 C   0  0  0  0  0  0           0  0  0
    7.6270   -6.1235    0.0000 C   0  0  0  0  0  0           0  0  0
    8.4525   -6.1269    0.0000 C   0  0  0  0  0  0           0  0  0
    8.8691   -5.4123    0.0000 C   0  0  0  0  0  0           0  0  0
    8.4541   -4.6929    0.0000 C   0  0  0  0  0  0           0  0  0
    7.6300   -4.6930    0.0000 C   0  0  0  0  0  0           0  0  0
    7.2083   -6.8333    0.0000 C   0  0  0  0  0  0           0  0  0
    6.0686   -6.8571    0.0000 N   0  0  3  0  0  0           0  0  0
    1.9250   -6.4125    0.0000 C   0  0  0  0  0  0           0  0  0
    1.9250   -7.2375    0.0000 C   0  0  0  0  0  0           0  0  0
    2.6370   -7.6458    0.0000 N   0  0  0  0  0  0           0  0  0
    3.3490   -7.2375    0.0000 C   0  0  0  0  0  0           0  0  0
    3.3490   -6.4125    0.0000 C   0  0  0  0  0  0           0  0  0
    2.6370   -5.9958    0.0000 N   0  0  0  0  0  0           0  0  0
    4.7866   -7.2336    0.0000 C   0  0  0  0  0  0           0  0  0
    5.5640   -7.5099    0.0000 C   0  0  0  0  0  0           0  0  0
    5.6010   -6.1743    0.0000 C   0  0  0  0  0  0           0  0  0
    4.8114   -6.4102    0.0000 C   0  0  0  0  0  0           0  0  0
    4.0664   -7.6485    0.0000 C   0  0  0  0  0  0           0  0  0
    4.0646   -5.9955    0.0000 C   0  0  0  0  0  0           0  0  0
    5.8125   -5.3708    0.0000 O   0  0  0  0  0  0           0  0  0
    5.7750   -8.3042    0.0000 O   0  0  0  0  0  0           0  0  0
    4.0583   -5.1667    0.0000 O   0  0  0  0  0  0           0  0  0
    4.0583   -8.4708    0.0000 O   0  0  0  0  0  0           0  0  0
    8.8583   -3.9750    0.0000 C   0  0  0  0  0  0           0  0  0
 11 12  1  0     0  0
 12 13  2  0     0  0
 13 14  1  0     0  0
 15 16  1  0     0  0
  2  7  1  0     0  0
  3  4  2  0     0  0
  9 10  1  0     0  0
 16  8  1  0     0  0
  8 17  1  0     0  0
 17 18  1  0     0  0
 18 15  1  0     0  0
  4  5  1  0     0  0
 12 19  1  0     0  0
 19 15  2  0     0  0
  2  3  1  0     0  0
 18 20  2  0     0  0
 20 13  1  0     0  0
  5  6  2  0     0  0
 17 21  2  0     0  0
  6  1  1  0     0  0
 16 22  2  0     0  0
  1  2  2  0     0  0
 20 23  1  0     0  0
  9 14  2  0     0  0
 19 24  1  0     0  0
  8  7  1  0     0  0
 10 11  2  0     0  0
  5 25  1  0     0  0
M  END
>  <prID>
850

>  <IDDB>
227479

>  <pIC50_HIV_Integrase>
5.799970733

>  <Q>
-1.053057719

>  <Activity_Integrase>
Inactive_Integrase

NA
NA
NA
NA
$$$$

  Accelrys05311914302D 1   1.00000     0.00000     0

 29 32  0     0  0            999 V2000
    7.2171   -5.4048    0.0000 C   0  0  0  0  0  0           0  0  0
    7.6270   -6.1235    0.0000 C   0  0  0  0  0  0           0  0  0
    8.4525   -6.1269    0.0000 C   0  0  0  0  0  0           0  0  0
    8.8691   -5.4123    0.0000 C   0  0  0  0  0  0           0  0  0
    8.4541   -4.6929    0.0000 C   0  0  0  0  0  0           0  0  0
    7.6300   -4.6930    0.0000 C   0  0  0  0  0  0           0  0  0
    7.2083   -6.8333    0.0000 C   0  0  0  0  0  0           0  0  0
    6.0686   -6.8571    0.0000 N   0  0  3  0  0  0           0  0  0
    1.9250   -6.4125    0.0000 C   0  0  0  0  0  0           0  0  0
    1.9250   -7.2375    0.0000 C   0  0  0  0  0  0           0  0  0
    2.6370   -7.6458    0.0000 N   0  0  0  0  0  0           0  0  0
    3.3490   -7.2375    0.0000 C   0  0  0  0  0  0           0  0  0
    3.3490   -6.4125    0.0000 C   0  0  0  0  0  0           0  0  0
    2.6370   -5.9958    0.0000 N   0  0  0  0  0  0           0  0  0
    4.7866   -7.2336    0.0000 C   0  0  0  0  0  0           0  0  0
    5.5640   -7.5099    0.0000 C   0  0  0  0  0  0           0  0  0
    5.6010   -6.1743    0.0000 C   0  0  0  0  0  0           0  0  0
    4.8114   -6.4102    0.0000 C   0  0  0  0  0  0           0  0  0
    4.0664   -7.6485    0.0000 C   0  0  0  0  0  0           0  0  0
    4.0646   -5.9955    0.0000 C   0  0  0  0  0  0           0  0  0
    5.8125   -5.3708    0.0000 O   0  0  0  0  0  0           0  0  0
    5.7750   -8.3042    0.0000 O   0  0  0  0  0  0           0  0  0
    4.0583   -5.1667    0.0000 O   0  0  0  0  0  0           0  0  0
    4.0583   -8.4708    0.0000 O   0  0  0  0  0  0           0  0  0
    8.8583   -3.9750    0.0000 O   0  0  0  0  0  0           0  0  0
    9.6833   -3.9750    0.0000 C   0  0  3  0  0  0           0  0  0
   10.0917   -3.2583    0.0000 F   0  0  0  0  0  0           0  0  0
   10.0917   -4.6875    0.0000 F   0  0  0  0  0  0           0  0  0
   10.5083   -3.9750    0.0000 F   0  0  0  0  0  0           0  0  0
  2  7  1  0     0  0
  3  4  2  0     0  0
  9 10  1  0     0  0
 16  8  1  0     0  0
  8 17  1  0     0  0
 17 18  1  0     0  0
 18 15  1  0     0  0
  4  5  1  0     0  0
 12 19  1  0     0  0
 19 15  2  0     0  0
  2  3  1  0     0  0
 18 20  2  0     0  0
 20 13  1  0     0  0
  5  6  2  0     0  0
 17 21  2  0     0  0
  6  1  1  0     0  0
 16 22  2  0     0  0
  1  2  2  0     0  0
 20 23  1  0     0  0
  9 14  2  0     0  0
 19 24  1  0     0  0
  8  7  1  0     0  0
 10 11  2  0     0  0
  5 25  1  0     0  0
 11 12  1  0     0  0
 25 26  1  0     0  0
 12 13  2  0     0  0
 26 27  1  0     0  0
 13 14  1  0     0  0
 26 28  1  0     0  0
 15 16  1  0     0  0
 26 29  1  0     0  0
M  END
>  <prID>
851

>  <IDDB>
227480

>  <pIC50_HIV_Integrase>
5.689944262

>  <Q>
-10.00127831

>  <Activity_Integrase>
Inactive_Integrase

NA
NA
NA
NA
$$$$

  Accelrys05311914302D 1   1.00000     0.00000     0

 28 31  0     0  0            999 V2000
    7.2171   -5.4048    0.0000 C   0  0  0  0  0  0           0  0  0
    7.6270   -6.1235    0.0000 C   0  0  0  0  0  0           0  0  0
    8.4525   -6.1269    0.0000 C   0  0  0  0  0  0           0  0  0
    8.8691   -5.4123    0.0000 C   0  0  0  0  0  0           0  0  0
    8.4541   -4.6929    0.0000 C   0  0  0  0  0  0           0  0  0
    7.6300   -4.6930    0.0000 C   0  0  0  0  0  0           0  0  0
    7.2083   -6.8333    0.0000 C   0  0  0  0  0  0           0  0  0
    6.0686   -6.8571    0.0000 N   0  0  3  0  0  0           0  0  0
    1.9250   -6.4125    0.0000 C   0  0  0  0  0  0           0  0  0
    1.9250   -7.2375    0.0000 C   0  0  0  0  0  0           0  0  0
    2.6370   -7.6458    0.0000 N   0  0  0  0  0  0           0  0  0
    3.3490   -7.2375    0.0000 C   0  0  0  0  0  0           0  0  0
    3.3490   -6.4125    0.0000 C   0  0  0  0  0  0           0  0  0
    2.6370   -5.9958    0.0000 N   0  0  0  0  0  0           0  0  0
    4.7866   -7.2336    0.0000 C   0  0  0  0  0  0           0  0  0
    5.5640   -7.5099    0.0000 C   0  0  0  0  0  0           0  0  0
    5.6010   -6.1743    0.0000 C   0  0  0  0  0  0           0  0  0
    4.8114   -6.4102    0.0000 C   0  0  0  0  0  0           0  0  0
    4.0664   -7.6485    0.0000 C   0  0  0  0  0  0           0  0  0
    4.0646   -5.9955    0.0000 C   0  0  0  0  0  0           0  0  0
    5.8125   -5.3708    0.0000 O   0  0  0  0  0  0           0  0  0
    5.7750   -8.3042    0.0000 O   0  0  0  0  0  0           0  0  0
    4.0583   -5.1667    0.0000 O   0  0  0  0  0  0           0  0  0
    4.0583   -8.4708    0.0000 O   0  0  0  0  0  0           0  0  0
    7.2125   -3.9750    0.0000 C   0  0  3  0  0  0           0  0  0
    6.3875   -3.9750    0.0000 F   0  0  0  0  0  0           0  0  0
    7.6208   -3.2583    0.0000 F   0  0  0  0  0  0           0  0  0
    6.7958   -3.2583    0.0000 F   0  0  0  0  0  0           0  0  0
 15 16  1  0     0  0
  2  7  1  0     0  0
  3  4  2  0     0  0
  9 10  1  0     0  0
 16  8  1  0     0  0
  8 17  1  0     0  0
 17 18  1  0     0  0
 18 15  1  0     0  0
  4  5  1  0     0  0
 12 19  1  0     0  0
 19 15  2  0     0  0
  2  3  1  0     0  0
 18 20  2  0     0  0
 20 13  1  0     0  0
  5  6  2  0     0  0
 17 21  2  0     0  0
  6  1  1  0     0  0
 16 22  2  0     0  0
  1  2  2  0     0  0
 20 23  1  0     0  0
  9 14  2  0     0  0
 19 24  1  0     0  0
  8  7  1  0     0  0
 10 11  2  0     0  0
  6 25  1  0     0  0
 11 12  1  0     0  0
 25 26  1  0     0  0
 12 13  2  0     0  0
 25 27  1  0     0  0
 13 14  1  0     0  0
 25 28  1  0     0  0
M  END
>  <prID>
852

>  <IDDB>
227481

>  <pIC50_HIV_Integrase>
6.369572125

>  <Q>
-9.291224316

>  <Activity_Integrase>
Active_Integrase

NA
NA
NA
NA
$$$$

  Accelrys05311914302D 1   1.00000     0.00000     0

 25 28  0     0  0            999 V2000
    7.2171   -5.4048    0.0000 C   0  0  0  0  0  0           0  0  0
    7.6270   -6.1235    0.0000 C   0  0  0  0  0  0           0  0  0
    8.4525   -6.1269    0.0000 C   0  0  0  0  0  0           0  0  0
    8.8691   -5.4123    0.0000 C   0  0  0  0  0  0           0  0  0
    8.4541   -4.6929    0.0000 C   0  0  0  0  0  0           0  0  0
    7.6300   -4.6930    0.0000 C   0  0  0  0  0  0           0  0  0
    7.2083   -6.8333    0.0000 C   0  0  0  0  0  0           0  0  0
    6.0686   -6.8571    0.0000 N   0  0  3  0  0  0           0  0  0
    1.9250   -6.4125    0.0000 C   0  0  0  0  0  0           0  0  0
    1.9250   -7.2375    0.0000 C   0  0  0  0  0  0           0  0  0
    2.6370   -7.6458    0.0000 N   0  0  0  0  0  0           0  0  0
    3.3490   -7.2375    0.0000 C   0  0  0  0  0  0           0  0  0
    3.3490   -6.4125    0.0000 C   0  0  0  0  0  0           0  0  0
    2.6370   -5.9958    0.0000 N   0  0  0  0  0  0           0  0  0
    4.7866   -7.2336    0.0000 C   0  0  0  0  0  0           0  0  0
    5.5640   -7.5099    0.0000 C   0  0  0  0  0  0           0  0  0
    5.6010   -6.1743    0.0000 C   0  0  0  0  0  0           0  0  0
    4.8114   -6.4102    0.0000 C   0  0  0  0  0  0           0  0  0
    4.0664   -7.6485    0.0000 C   0  0  0  0  0  0           0  0  0
    4.0646   -5.9955    0.0000 C   0  0  0  0  0  0           0  0  0
    5.8125   -5.3708    0.0000 O   0  0  0  0  0  0           0  0  0
    5.7750   -8.3042    0.0000 O   0  0  0  0  0  0           0  0  0
    4.0583   -5.1667    0.0000 O   0  0  0  0  0  0           0  0  0
    4.0583   -8.4708    0.0000 O   0  0  0  0  0  0           0  0  0
    7.2125   -3.9750    0.0000 F   0  0  0  0  0  0           0  0  0
 11 12  1  0     0  0
 12 13  2  0     0  0
 13 14  1  0     0  0
 15 16  1  0     0  0
  2  7  1  0     0  0
  3  4  2  0     0  0
  9 10  1  0     0  0
 16  8  1  0     0  0
  8 17  1  0     0  0
 17 18  1  0     0  0
 18 15  1  0     0  0
  4  5  1  0     0  0
 12 19  1  0     0  0
 19 15  2  0     0  0
  2  3  1  0     0  0
 18 20  2  0     0  0
 20 13  1  0     0  0
  5  6  2  0     0  0
 17 21  2  0     0  0
  6  1  1  0     0  0
 16 22  2  0     0  0
  1  2  2  0     0  0
 20 23  1  0     0  0
  9 14  2  0     0  0
 19 24  1  0     0  0
  8  7  1  0     0  0
 10 11  2  0     0  0
  6 25  1  0     0  0
M  END
>  <prID>
853

>  <IDDB>
227482

>  <pIC50_HIV_Integrase>
6.250263684

>  <Q>
-3.366348531

>  <Activity_Integrase>
Active_Integrase

NA
NA
NA
NA
$$$$

  Accelrys05311914302D 1   1.00000     0.00000     0

 25 28  0     0  0            999 V2000
    7.2171   -5.4048    0.0000 C   0  0  0  0  0  0           0  0  0
    7.6270   -6.1235    0.0000 C   0  0  0  0  0  0           0  0  0
    8.4525   -6.1269    0.0000 C   0  0  0  0  0  0           0  0  0
    8.8691   -5.4123    0.0000 C   0  0  0  0  0  0           0  0  0
    8.4541   -4.6929    0.0000 C   0  0  0  0  0  0           0  0  0
    7.6300   -4.6930    0.0000 C   0  0  0  0  0  0           0  0  0
    7.2083   -6.8333    0.0000 C   0  0  0  0  0  0           0  0  0
    6.0686   -6.8571    0.0000 N   0  0  3  0  0  0           0  0  0
    1.9250   -6.4125    0.0000 C   0  0  0  0  0  0           0  0  0
    1.9250   -7.2375    0.0000 C   0  0  0  0  0  0           0  0  0
    2.6370   -7.6458    0.0000 N   0  0  0  0  0  0           0  0  0
    3.3490   -7.2375    0.0000 C   0  0  0  0  0  0           0  0  0
    3.3490   -6.4125    0.0000 C   0  0  0  0  0  0           0  0  0
    2.6370   -5.9958    0.0000 N   0  0  0  0  0  0           0  0  0
    4.7866   -7.2336    0.0000 C   0  0  0  0  0  0           0  0  0
    5.5640   -7.5099    0.0000 C   0  0  0  0  0  0           0  0  0
    5.6010   -6.1743    0.0000 C   0  0  0  0  0  0           0  0  0
    4.8114   -6.4102    0.0000 C   0  0  0  0  0  0           0  0  0
    4.0664   -7.6485    0.0000 C   0  0  0  0  0  0           0  0  0
    4.0646   -5.9955    0.0000 C   0  0  0  0  0  0           0  0  0
    5.8125   -5.3708    0.0000 O   0  0  0  0  0  0           0  0  0
    5.7750   -8.3042    0.0000 O   0  0  0  0  0  0           0  0  0
    4.0583   -5.1667    0.0000 O   0  0  0  0  0  0           0  0  0
    4.0583   -8.4708    0.0000 O   0  0  0  0  0  0           0  0  0
    8.8583   -3.9750    0.0000 F   0  0  0  0  0  0           0  0  0
 11 12  1  0     0  0
 12 13  2  0     0  0
 13 14  1  0     0  0
 15 16  1  0     0  0
  2  7  1  0     0  0
  3  4  2  0     0  0
  9 10  1  0     0  0
 16  8  1  0     0  0
  8 17  1  0     0  0
 17 18  1  0     0  0
 18 15  1  0     0  0
  4  5  1  0     0  0
 12 19  1  0     0  0
 19 15  2  0     0  0
  2  3  1  0     0  0
 18 20  2  0     0  0
 20 13  1  0     0  0
  5  6  2  0     0  0
 17 21  2  0     0  0
  6  1  1  0     0  0
 16 22  2  0     0  0
  1  2  2  0     0  0
 20 23  1  0     0  0
  9 14  2  0     0  0
 19 24  1  0     0  0
  8  7  1  0     0  0
 10 11  2  0     0  0
  5 25  1  0     0  0
M  END
>  <prID>
854

>  <IDDB>
227483

>  <pIC50_HIV_Integrase>
6.379863945

>  <Q>
-3.357043892

>  <Activity_Integrase>
Active_Integrase

NA
NA
NA
NA
$$$$

  Accelrys05311914302D 1   1.00000     0.00000     0

 26 29  0     0  0            999 V2000
    7.2171   -5.4048    0.0000 C   0  0  0  0  0  0           0  0  0
    7.6270   -6.1235    0.0000 C   0  0  0  0  0  0           0  0  0
    8.4525   -6.1269    0.0000 C   0  0  0  0  0  0           0  0  0
    8.8691   -5.4123    0.0000 C   0  0  0  0  0  0           0  0  0
    8.4541   -4.6929    0.0000 C   0  0  0  0  0  0           0  0  0
    7.6300   -4.6930    0.0000 C   0  0  0  0  0  0           0  0  0
    7.2083   -6.8333    0.0000 C   0  0  0  0  0  0           0  0  0
    6.0686   -6.8571    0.0000 N   0  0  3  0  0  0           0  0  0
    1.9250   -6.4125    0.0000 C   0  0  0  0  0  0           0  0  0
    1.9250   -7.2375    0.0000 C   0  0  0  0  0  0           0  0  0
    2.6370   -7.6458    0.0000 N   0  0  0  0  0  0           0  0  0
    3.3490   -7.2375    0.0000 C   0  0  0  0  0  0           0  0  0
    3.3490   -6.4125    0.0000 C   0  0  0  0  0  0           0  0  0
    2.6370   -5.9958    0.0000 N   0  0  0  0  0  0           0  0  0
    4.7866   -7.2336    0.0000 C   0  0  0  0  0  0           0  0  0
    5.5640   -7.5099    0.0000 C   0  0  0  0  0  0           0  0  0
    5.6010   -6.1743    0.0000 C   0  0  0  0  0  0           0  0  0
    4.8114   -6.4102    0.0000 C   0  0  0  0  0  0           0  0  0
    4.0664   -7.6485    0.0000 C   0  0  0  0  0  0           0  0  0
    4.0646   -5.9955    0.0000 C   0  0  0  0  0  0           0  0  0
    5.8125   -5.3708    0.0000 O   0  0  0  0  0  0           0  0  0
    5.7750   -8.3042    0.0000 O   0  0  0  0  0  0           0  0  0
    4.0583   -5.1667    0.0000 O   0  0  0  0  0  0           0  0  0
    4.0583   -8.4708    0.0000 O   0  0  0  0  0  0           0  0  0
    8.8583   -3.9750    0.0000 Br  0  0  0  0  0  0           0  0  0
    6.3917   -5.4042    0.0000 F   0  0  0  0  0  0           0  0  0
 12 13  2  0     0  0
 13 14  1  0     0  0
 15 16  1  0     0  0
  2  7  1  0     0  0
  3  4  2  0     0  0
  9 10  1  0     0  0
 16  8  1  0     0  0
  8 17  1  0     0  0
 17 18  1  0     0  0
 18 15  1  0     0  0
  4  5  1  0     0  0
 12 19  1  0     0  0
 19 15  2  0     0  0
  2  3  1  0     0  0
 18 20  2  0     0  0
 20 13  1  0     0  0
  5  6  2  0     0  0
 17 21  2  0     0  0
  6  1  1  0     0  0
 16 22  2  0     0  0
  1  2  2  0     0  0
 20 23  1  0     0  0
  9 14  2  0     0  0
 19 24  1  0     0  0
  8  7  1  0     0  0
 10 11  2  0     0  0
  5 25  1  0     0  0
 11 12  1  0     0  0
  1 26  1  0     0  0
M  END
>  <prID>
855

>  <IDDB>
227484

>  <pIC50_HIV_Integrase>
6.359518563

>  <Q>
-3.336752296

>  <Activity_Integrase>
Active_Integrase

NA
NA
NA
NA
$$$$

  Accelrys05311914302D 1   1.00000     0.00000     0

 26 29  0     0  0            999 V2000
    7.2171   -5.4048    0.0000 C   0  0  0  0  0  0           0  0  0
    7.6270   -6.1235    0.0000 C   0  0  0  0  0  0           0  0  0
    8.4525   -6.1269    0.0000 C   0  0  0  0  0  0           0  0  0
    8.8691   -5.4123    0.0000 C   0  0  0  0  0  0           0  0  0
    8.4541   -4.6929    0.0000 C   0  0  0  0  0  0           0  0  0
    7.6300   -4.6930    0.0000 C   0  0  0  0  0  0           0  0  0
    7.2083   -6.8333    0.0000 C   0  0  0  0  0  0           0  0  0
    6.0686   -6.8571    0.0000 N   0  0  3  0  0  0           0  0  0
    1.9250   -6.4125    0.0000 C   0  0  0  0  0  0           0  0  0
    1.9250   -7.2375    0.0000 C   0  0  0  0  0  0           0  0  0
    2.6370   -7.6458    0.0000 N   0  0  0  0  0  0           0  0  0
    3.3490   -7.2375    0.0000 C   0  0  0  0  0  0           0  0  0
    3.3490   -6.4125    0.0000 C   0  0  0  0  0  0           0  0  0
    2.6370   -5.9958    0.0000 N   0  0  0  0  0  0           0  0  0
    4.7866   -7.2336    0.0000 C   0  0  0  0  0  0           0  0  0
    5.5640   -7.5099    0.0000 C   0  0  0  0  0  0           0  0  0
    5.6010   -6.1743    0.0000 C   0  0  0  0  0  0           0  0  0
    4.8114   -6.4102    0.0000 C   0  0  0  0  0  0           0  0  0
    4.0664   -7.6485    0.0000 C   0  0  0  0  0  0           0  0  0
    4.0646   -5.9955    0.0000 C   0  0  0  0  0  0           0  0  0
    5.8125   -5.3708    0.0000 O   0  0  0  0  0  0           0  0  0
    5.7750   -8.3042    0.0000 O   0  0  0  0  0  0           0  0  0
    4.0583   -5.1667    0.0000 O   0  0  0  0  0  0           0  0  0
    4.0583   -8.4708    0.0000 O   0  0  0  0  0  0           0  0  0
    6.3917   -5.4042    0.0000 F   0  0  0  0  0  0           0  0  0
    9.6917   -5.4083    0.0000 Br  0  0  0  0  0  0           0  0  0
 12 13  2  0     0  0
 13 14  1  0     0  0
 15 16  1  0     0  0
  2  7  1  0     0  0
  3  4  2  0     0  0
  9 10  1  0     0  0
 16  8  1  0     0  0
  8 17  1  0     0  0
 17 18  1  0     0  0
 18 15  1  0     0  0
  4  5  1  0     0  0
 12 19  1  0     0  0
 19 15  2  0     0  0
  2  3  1  0     0  0
 18 20  2  0     0  0
 20 13  1  0     0  0
  5  6  2  0     0  0
 17 21  2  0     0  0
  6  1  1  0     0  0
 16 22  2  0     0  0
  1  2  2  0     0  0
 20 23  1  0     0  0
  9 14  2  0     0  0
 19 24  1  0     0  0
  8  7  1  0     0  0
 10 11  2  0     0  0
  1 25  1  0     0  0
 11 12  1  0     0  0
  4 26  1  0     0  0
M  END
>  <prID>
856

>  <IDDB>
227485

>  <pIC50_HIV_Integrase>
6.449771647

>  <Q>
-3.318062371

>  <Activity_Integrase>
Active_Integrase

NA
NA
NA
NA
$$$$

  Accelrys05311914302D 1   1.00000     0.00000     0

 26 29  0     0  0            999 V2000
    7.2171   -5.4048    0.0000 C   0  0  0  0  0  0           0  0  0
    7.6270   -6.1235    0.0000 C   0  0  0  0  0  0           0  0  0
    8.4525   -6.1269    0.0000 C   0  0  0  0  0  0           0  0  0
    8.8691   -5.4123    0.0000 C   0  0  0  0  0  0           0  0  0
    8.4541   -4.6929    0.0000 C   0  0  0  0  0  0           0  0  0
    7.6300   -4.6930    0.0000 C   0  0  0  0  0  0           0  0  0
    7.2083   -6.8333    0.0000 C   0  0  0  0  0  0           0  0  0
    6.0686   -6.8571    0.0000 N   0  0  3  0  0  0           0  0  0
    1.9250   -6.4125    0.0000 C   0  0  0  0  0  0           0  0  0
    1.9250   -7.2375    0.0000 C   0  0  0  0  0  0           0  0  0
    2.6370   -7.6458    0.0000 N   0  0  0  0  0  0           0  0  0
    3.3490   -7.2375    0.0000 C   0  0  0  0  0  0           0  0  0
    3.3490   -6.4125    0.0000 C   0  0  0  0  0  0           0  0  0
    2.6370   -5.9958    0.0000 N   0  0  0  0  0  0           0  0  0
    4.7866   -7.2336    0.0000 C   0  0  0  0  0  0           0  0  0
    5.5640   -7.5099    0.0000 C   0  0  0  0  0  0           0  0  0
    5.6010   -6.1743    0.0000 C   0  0  0  0  0  0           0  0  0
    4.8114   -6.4102    0.0000 C   0  0  0  0  0  0           0  0  0
    4.0664   -7.6485    0.0000 C   0  0  0  0  0  0           0  0  0
    4.0646   -5.9955    0.0000 C   0  0  0  0  0  0           0  0  0
    5.8125   -5.3708    0.0000 O   0  0  0  0  0  0           0  0  0
    5.7750   -8.3042    0.0000 O   0  0  0  0  0  0           0  0  0
    4.0583   -5.1667    0.0000 O   0  0  0  0  0  0           0  0  0
    4.0583   -8.4708    0.0000 O   0  0  0  0  0  0           0  0  0
    7.2125   -3.9750    0.0000 F   0  0  0  0  0  0           0  0  0
    9.6917   -5.4083    0.0000 F   0  0  0  0  0  0           0  0  0
 12 13  2  0     0  0
 13 14  1  0     0  0
 15 16  1  0     0  0
  2  7  1  0     0  0
  3  4  2  0     0  0
  9 10  1  0     0  0
 16  8  1  0     0  0
  8 17  1  0     0  0
 17 18  1  0     0  0
 18 15  1  0     0  0
  4  5  1  0     0  0
 12 19  1  0     0  0
 19 15  2  0     0  0
  2  3  1  0     0  0
 18 20  2  0     0  0
 20 13  1  0     0  0
  5  6  2  0     0  0
 17 21  2  0     0  0
  6  1  1  0     0  0
 16 22  2  0     0  0
  1  2  2  0     0  0
 20 23  1  0     0  0
  9 14  2  0     0  0
 19 24  1  0     0  0
  8  7  1  0     0  0
 10 11  2  0     0  0
  6 25  1  0     0  0
 11 12  1  0     0  0
  4 26  1  0     0  0
M  END
>  <prID>
857

>  <IDDB>
227486

>  <pIC50_HIV_Integrase>
6.42945706

>  <Q>
-5.885280228

>  <Activity_Integrase>
Active_Integrase

NA
NA
NA
NA
$$$$

  Accelrys05311914302D 1   1.00000     0.00000     0

 26 29  0     0  0            999 V2000
    7.2171   -5.4048    0.0000 C   0  0  0  0  0  0           0  0  0
    7.6270   -6.1235    0.0000 C   0  0  0  0  0  0           0  0  0
    8.4525   -6.1269    0.0000 C   0  0  0  0  0  0           0  0  0
    8.8691   -5.4123    0.0000 C   0  0  0  0  0  0           0  0  0
    8.4541   -4.6929    0.0000 C   0  0  0  0  0  0           0  0  0
    7.6300   -4.6930    0.0000 C   0  0  0  0  0  0           0  0  0
    7.2083   -6.8333    0.0000 C   0  0  0  0  0  0           0  0  0
    6.0686   -6.8571    0.0000 N   0  0  3  0  0  0           0  0  0
    1.9250   -6.4125    0.0000 C   0  0  0  0  0  0           0  0  0
    1.9250   -7.2375    0.0000 C   0  0  0  0  0  0           0  0  0
    2.6370   -7.6458    0.0000 N   0  0  0  0  0  0           0  0  0
    3.3490   -7.2375    0.0000 C   0  0  0  0  0  0           0  0  0
    3.3490   -6.4125    0.0000 C   0  0  0  0  0  0           0  0  0
    2.6370   -5.9958    0.0000 N   0  0  0  0  0  0           0  0  0
    4.7866   -7.2336    0.0000 C   0  0  0  0  0  0           0  0  0
    5.5640   -7.5099    0.0000 C   0  0  0  0  0  0           0  0  0
    5.6010   -6.1743    0.0000 C   0  0  0  0  0  0           0  0  0
    4.8114   -6.4102    0.0000 C   0  0  0  0  0  0           0  0  0
    4.0664   -7.6485    0.0000 C   0  0  0  0  0  0           0  0  0
    4.0646   -5.9955    0.0000 C   0  0  0  0  0  0           0  0  0
    5.8125   -5.3708    0.0000 O   0  0  0  0  0  0           0  0  0
    5.7750   -8.3042    0.0000 O   0  0  0  0  0  0           0  0  0
    4.0583   -5.1667    0.0000 O   0  0  0  0  0  0           0  0  0
    4.0583   -8.4708    0.0000 O   0  0  0  0  0  0           0  0  0
    9.6917   -5.4083    0.0000 Cl  0  0  0  0  0  0           0  0  0
    8.8583   -3.9750    0.0000 F   0  0  0  0  0  0           0  0  0
 12 13  2  0     0  0
 13 14  1  0     0  0
 15 16  1  0     0  0
  2  7  1  0     0  0
  3  4  2  0     0  0
  9 10  1  0     0  0
 16  8  1  0     0  0
  8 17  1  0     0  0
 17 18  1  0     0  0
 18 15  1  0     0  0
  4  5  1  0     0  0
 12 19  1  0     0  0
 19 15  2  0     0  0
  2  3  1  0     0  0
 18 20  2  0     0  0
 20 13  1  0     0  0
  5  6  2  0     0  0
 17 21  2  0     0  0
  6  1  1  0     0  0
 16 22  2  0     0  0
  1  2  2  0     0  0
 20 23  1  0     0  0
  9 14  2  0     0  0
 19 24  1  0     0  0
  8  7  1  0     0  0
 10 11  2  0     0  0
  4 25  1  0     0  0
 11 12  1  0     0  0
  5 26  1  0     0  0
M  END
>  <prID>
858

>  <IDDB>
227487

>  <pIC50_HIV_Integrase>
6.749579998

>  <Q>
-4.189245652

>  <Activity_Integrase>
Active_Integrase

NA
NA
NA
NA
$$$$

  Accelrys05311914302D 1   1.00000     0.00000     0

 25 28  0     0  0            999 V2000
    7.2171   -5.4048    0.0000 C   0  0  0  0  0  0           0  0  0
    7.6270   -6.1235    0.0000 C   0  0  0  0  0  0           0  0  0
    8.4525   -6.1269    0.0000 C   0  0  0  0  0  0           0  0  0
    8.8691   -5.4123    0.0000 C   0  0  0  0  0  0           0  0  0
    8.4541   -4.6929    0.0000 C   0  0  0  0  0  0           0  0  0
    7.6300   -4.6930    0.0000 C   0  0  0  0  0  0           0  0  0
    7.2083   -6.8333    0.0000 C   0  0  0  0  0  0           0  0  0
    6.0686   -6.8571    0.0000 N   0  0  3  0  0  0           0  0  0
    1.9250   -6.4125    0.0000 C   0  0  0  0  0  0           0  0  0
    1.9250   -7.2375    0.0000 C   0  0  0  0  0  0           0  0  0
    2.6370   -7.6458    0.0000 N   0  0  0  0  0  0           0  0  0
    3.3490   -7.2375    0.0000 C   0  0  0  0  0  0           0  0  0
    3.3490   -6.4125    0.0000 C   0  0  0  0  0  0           0  0  0
    2.6370   -5.9958    0.0000 N   0  0  0  0  0  0           0  0  0
    4.7866   -7.2336    0.0000 C   0  0  0  0  0  0           0  0  0
    5.5640   -7.5099    0.0000 C   0  0  0  0  0  0           0  0  0
    5.6010   -6.1743    0.0000 C   0  0  0  0  0  0           0  0  0
    4.8114   -6.4102    0.0000 C   0  0  0  0  0  0           0  0  0
    4.0664   -7.6485    0.0000 C   0  0  0  0  0  0           0  0  0
    4.0646   -5.9955    0.0000 C   0  0  0  0  0  0           0  0  0
    5.8125   -5.3708    0.0000 O   0  0  0  0  0  0           0  0  0
    5.7750   -8.3042    0.0000 O   0  0  0  0  0  0           0  0  0
    4.0583   -5.1667    0.0000 O   0  0  0  0  0  0           0  0  0
    4.0583   -8.4708    0.0000 O   0  0  0  0  0  0           0  0  0
    7.2125   -3.9750    0.0000 Cl  0  0  0  0  0  0           0  0  0
 11 12  1  0     0  0
 12 13  2  0     0  0
 13 14  1  0     0  0
 15 16  1  0     0  0
  2  7  1  0     0  0
  3  4  2  0     0  0
  9 10  1  0     0  0
 16  8  1  0     0  0
  8 17  1  0     0  0
 17 18  1  0     0  0
 18 15  1  0     0  0
  4  5  1  0     0  0
 12 19  1  0     0  0
 19 15  2  0     0  0
  2  3  1  0     0  0
 18 20  2  0     0  0
 20 13  1  0     0  0
  5  6  2  0     0  0
 17 21  2  0     0  0
  6  1  1  0     0  0
 16 22  2  0     0  0
  1  2  2  0     0  0
 20 23  1  0     0  0
  9 14  2  0     0  0
 19 24  1  0     0  0
  8  7  1  0     0  0
 10 11  2  0     0  0
  6 25  1  0     0  0
M  END
>  <prID>
859

>  <IDDB>
227488

>  <pIC50_HIV_Integrase>
6.659555885

>  <Q>
-1.814354574

>  <Activity_Integrase>
Active_Integrase

NA
NA
NA
NA
$$$$

  Accelrys05311914302D 1   1.00000     0.00000     0

 25 28  0     0  0            999 V2000
    7.2171   -5.4048    0.0000 C   0  0  0  0  0  0           0  0  0
    7.6270   -6.1235    0.0000 C   0  0  0  0  0  0           0  0  0
    8.4525   -6.1269    0.0000 C   0  0  0  0  0  0           0  0  0
    8.8691   -5.4123    0.0000 C   0  0  0  0  0  0           0  0  0
    8.4541   -4.6929    0.0000 C   0  0  0  0  0  0           0  0  0
    7.6300   -4.6930    0.0000 C   0  0  0  0  0  0           0  0  0
    7.2083   -6.8333    0.0000 C   0  0  0  0  0  0           0  0  0
    6.0686   -6.8571    0.0000 N   0  0  3  0  0  0           0  0  0
    1.9250   -6.4125    0.0000 C   0  0  0  0  0  0           0  0  0
    1.9250   -7.2375    0.0000 C   0  0  0  0  0  0           0  0  0
    2.6370   -7.6458    0.0000 N   0  0  0  0  0  0           0  0  0
    3.3490   -7.2375    0.0000 C   0  0  0  0  0  0           0  0  0
    3.3490   -6.4125    0.0000 C   0  0  0  0  0  0           0  0  0
    2.6370   -5.9958    0.0000 N   0  0  0  0  0  0           0  0  0
    4.7866   -7.2336    0.0000 C   0  0  0  0  0  0           0  0  0
    5.5640   -7.5099    0.0000 C   0  0  0  0  0  0           0  0  0
    5.6010   -6.1743    0.0000 C   0  0  0  0  0  0           0  0  0
    4.8114   -6.4102    0.0000 C   0  0  0  0  0  0           0  0  0
    4.0664   -7.6485    0.0000 C   0  0  0  0  0  0           0  0  0
    4.0646   -5.9955    0.0000 C   0  0  0  0  0  0           0  0  0
    5.8125   -5.3708    0.0000 O   0  0  0  0  0  0           0  0  0
    5.7750   -8.3042    0.0000 O   0  0  0  0  0  0           0  0  0
    4.0583   -5.1667    0.0000 O   0  0  0  0  0  0           0  0  0
    4.0583   -8.4708    0.0000 O   0  0  0  0  0  0           0  0  0
    8.8583   -3.9750    0.0000 Cl  0  0  0  0  0  0           0  0  0
 11 12  1  0     0  0
 12 13  2  0     0  0
 13 14  1  0     0  0
 15 16  1  0     0  0
  2  7  1  0     0  0
  3  4  2  0     0  0
  9 10  1  0     0  0
 16  8  1  0     0  0
  8 17  1  0     0  0
 17 18  1  0     0  0
 18 15  1  0     0  0
  4  5  1  0     0  0
 12 19  1  0     0  0
 19 15  2  0     0  0
  2  3  1  0     0  0
 18 20  2  0     0  0
 20 13  1  0     0  0
  5  6  2  0     0  0
 17 21  2  0     0  0
  6  1  1  0     0  0
 16 22  2  0     0  0
  1  2  2  0     0  0
 20 23  1  0     0  0
  9 14  2  0     0  0
 19 24  1  0     0  0
  8  7  1  0     0  0
 10 11  2  0     0  0
  5 25  1  0     0  0
M  END
>  <prID>
860

>  <IDDB>
227489

>  <pIC50_HIV_Integrase>
6.379863945

>  <Q>
-1.814200935

>  <Activity_Integrase>
Active_Integrase

NA
NA
NA
NA
$$$$

  Accelrys05311914302D 1   1.00000     0.00000     0

 26 29  0     0  0            999 V2000
    7.2171   -5.4048    0.0000 C   0  0  0  0  0  0           0  0  0
    7.6270   -6.1235    0.0000 C   0  0  0  0  0  0           0  0  0
    8.4525   -6.1269    0.0000 C   0  0  0  0  0  0           0  0  0
    8.8691   -5.4123    0.0000 C   0  0  0  0  0  0           0  0  0
    8.4541   -4.6929    0.0000 C   0  0  0  0  0  0           0  0  0
    7.6300   -4.6930    0.0000 C   0  0  0  0  0  0           0  0  0
    7.2083   -6.8333    0.0000 C   0  0  0  0  0  0           0  0  0
    6.0686   -6.8571    0.0000 N   0  0  3  0  0  0           0  0  0
    1.9250   -6.4125    0.0000 C   0  0  0  0  0  0           0  0  0
    1.9250   -7.2375    0.0000 C   0  0  0  0  0  0           0  0  0
    2.6370   -7.6458    0.0000 N   0  0  0  0  0  0           0  0  0
    3.3490   -7.2375    0.0000 C   0  0  0  0  0  0           0  0  0
    3.3490   -6.4125    0.0000 C   0  0  0  0  0  0           0  0  0
    2.6370   -5.9958    0.0000 N   0  0  0  0  0  0           0  0  0
    4.7866   -7.2336    0.0000 C   0  0  0  0  0  0           0  0  0
    5.5640   -7.5099    0.0000 C   0  0  0  0  0  0           0  0  0
    5.6010   -6.1743    0.0000 C   0  0  0  0  0  0           0  0  0
    4.8114   -6.4102    0.0000 C   0  0  0  0  0  0           0  0  0
    4.0664   -7.6485    0.0000 C   0  0  0  0  0  0           0  0  0
    4.0646   -5.9955    0.0000 C   0  0  0  0  0  0           0  0  0
    5.8125   -5.3708    0.0000 O   0  0  0  0  0  0           0  0  0
    5.7750   -8.3042    0.0000 O   0  0  0  0  0  0           0  0  0
    4.0583   -5.1667    0.0000 O   0  0  0  0  0  0           0  0  0
    4.0583   -8.4708    0.0000 O   0  0  0  0  0  0           0  0  0
    8.8583   -3.9750    0.0000 Cl  0  0  0  0  0  0           0  0  0
    7.2125   -3.9750    0.0000 Cl  0  0  0  0  0  0           0  0  0
 12 13  2  0     0  0
 13 14  1  0     0  0
 15 16  1  0     0  0
  2  7  1  0     0  0
  3  4  2  0     0  0
  9 10  1  0     0  0
 16  8  1  0     0  0
  8 17  1  0     0  0
 17 18  1  0     0  0
 18 15  1  0     0  0
  4  5  1  0     0  0
 12 19  1  0     0  0
 19 15  2  0     0  0
  2  3  1  0     0  0
 18 20  2  0     0  0
 20 13  1  0     0  0
  5  6  2  0     0  0
 17 21  2  0     0  0
  6  1  1  0     0  0
 16 22  2  0     0  0
  1  2  2  0     0  0
 20 23  1  0     0  0
  9 14  2  0     0  0
 19 24  1  0     0  0
  8  7  1  0     0  0
 10 11  2  0     0  0
  5 25  1  0     0  0
 11 12  1  0     0  0
  6 26  1  0     0  0
M  END
>  <prID>
861

>  <IDDB>
227490

>  <pIC50_HIV_Integrase>
6.950781977

>  <Q>
-2.701574517

>  <Activity_Integrase>
Active_Integrase

NA
NA
NA
NA
$$$$

  Accelrys05311914302D 1   1.00000     0.00000     0

 26 29  0     0  0            999 V2000
    7.2171   -5.4048    0.0000 C   0  0  0  0  0  0           0  0  0
    7.6270   -6.1235    0.0000 C   0  0  0  0  0  0           0  0  0
    8.4525   -6.1269    0.0000 C   0  0  0  0  0  0           0  0  0
    8.8691   -5.4123    0.0000 C   0  0  0  0  0  0           0  0  0
    8.4541   -4.6929    0.0000 C   0  0  0  0  0  0           0  0  0
    7.6300   -4.6930    0.0000 C   0  0  0  0  0  0           0  0  0
    7.2083   -6.8333    0.0000 C   0  0  0  0  0  0           0  0  0
    6.0686   -6.8571    0.0000 N   0  0  3  0  0  0           0  0  0
    1.9250   -6.4125    0.0000 C   0  0  0  0  0  0           0  0  0
    1.9250   -7.2375    0.0000 C   0  0  0  0  0  0           0  0  0
    2.6370   -7.6458    0.0000 N   0  0  0  0  0  0           0  0  0
    3.3490   -7.2375    0.0000 C   0  0  0  0  0  0           0  0  0
    3.3490   -6.4125    0.0000 C   0  0  0  0  0  0           0  0  0
    2.6370   -5.9958    0.0000 N   0  0  0  0  0  0           0  0  0
    4.7866   -7.2336    0.0000 C   0  0  0  0  0  0           0  0  0
    5.5640   -7.5099    0.0000 C   0  0  0  0  0  0           0  0  0
    5.6010   -6.1743    0.0000 C   0  0  0  0  0  0           0  0  0
    4.8114   -6.4102    0.0000 C   0  0  0  0  0  0           0  0  0
    4.0664   -7.6485    0.0000 C   0  0  0  0  0  0           0  0  0
    4.0646   -5.9955    0.0000 C   0  0  0  0  0  0           0  0  0
    5.8125   -5.3708    0.0000 O   0  0  0  0  0  0           0  0  0
    5.7750   -8.3042    0.0000 O   0  0  0  0  0  0           0  0  0
    4.0583   -5.1667    0.0000 O   0  0  0  0  0  0           0  0  0
    4.0583   -8.4708    0.0000 O   0  0  0  0  0  0           0  0  0
    7.2125   -3.9750    0.0000 Cl  0  0  0  0  0  0           0  0  0
    9.6917   -5.4083    0.0000 Cl  0  0  0  0  0  0           0  0  0
 12 13  2  0     0  0
 13 14  1  0     0  0
 15 16  1  0     0  0
  2  7  1  0     0  0
  3  4  2  0     0  0
  9 10  1  0     0  0
 16  8  1  0     0  0
  8 17  1  0     0  0
 17 18  1  0     0  0
 18 15  1  0     0  0
  4  5  1  0     0  0
 12 19  1  0     0  0
 19 15  2  0     0  0
  2  3  1  0     0  0
 18 20  2  0     0  0
 20 13  1  0     0  0
  5  6  2  0     0  0
 17 21  2  0     0  0
  6  1  1  0     0  0
 16 22  2  0     0  0
  1  2  2  0     0  0
 20 23  1  0     0  0
  9 14  2  0     0  0
 19 24  1  0     0  0
  8  7  1  0     0  0
 10 11  2  0     0  0
  6 25  1  0     0  0
 11 12  1  0     0  0
  4 26  1  0     0  0
M  END
>  <prID>
862

>  <IDDB>
227491

>  <pIC50_HIV_Integrase>
6.369572125

>  <Q>
-2.770213615

>  <Activity_Integrase>
Active_Integrase

NA
NA
NA
NA
$$$$

  Accelrys05311914302D 1   1.00000     0.00000     0

 25 28  0     0  0            999 V2000
    7.4046   -5.4340    0.0000 C   0  0  0  0  0  0           0  0  0
    7.8145   -6.1527    0.0000 C   0  0  0  0  0  0           0  0  0
    8.6400   -6.1560    0.0000 C   0  0  0  0  0  0           0  0  0
    9.0566   -5.4415    0.0000 C   0  0  0  0  0  0           0  0  0
    8.6416   -4.7220    0.0000 C   0  0  0  0  0  0           0  0  0
    7.8175   -4.7222    0.0000 C   0  0  0  0  0  0           0  0  0
    7.3958   -6.8625    0.0000 C   0  0  0  0  0  0           0  0  0
    6.0686   -6.8571    0.0000 N   0  0  3  0  0  0           0  0  0
    1.9250   -6.4125    0.0000 C   0  0  0  0  0  0           0  0  0
    1.9250   -7.2375    0.0000 C   0  0  0  0  0  0           0  0  0
    2.6370   -7.6458    0.0000 N   0  0  0  0  0  0           0  0  0
    3.3490   -7.2375    0.0000 C   0  0  0  0  0  0           0  0  0
    3.3490   -6.4125    0.0000 C   0  0  0  0  0  0           0  0  0
    2.6370   -5.9958    0.0000 N   0  0  0  0  0  0           0  0  0
    4.7866   -7.2336    0.0000 C   0  0  0  0  0  0           0  0  0
    5.5640   -7.5099    0.0000 C   0  0  0  0  0  0           0  0  0
    5.6010   -6.1743    0.0000 C   0  0  0  0  0  0           0  0  0
    4.8114   -6.4102    0.0000 C   0  0  0  0  0  0           0  0  0
    4.0664   -7.6485    0.0000 C   0  0  0  0  0  0           0  0  0
    4.0646   -5.9955    0.0000 C   0  0  0  0  0  0           0  0  0
    5.8125   -5.3708    0.0000 O   0  0  0  0  0  0           0  0  0
    5.7750   -8.3042    0.0000 O   0  0  0  0  0  0           0  0  0
    4.0583   -5.1667    0.0000 O   0  0  0  0  0  0           0  0  0
    4.0583   -8.4708    0.0000 O   0  0  0  0  0  0           0  0  0
    6.5792   -5.4333    0.0000 Br  0  0  0  0  0  0           0  0  0
 11 12  1  0     0  0
 12 13  2  0     0  0
 13 14  1  0     0  0
 15 16  1  0     0  0
  2  7  1  0     0  0
  3  4  2  0     0  0
  9 10  1  0     0  0
 16  8  1  0     0  0
  8 17  1  0     0  0
 17 18  1  0     0  0
 18 15  1  0     0  0
  4  5  1  0     0  0
 12 19  1  0     0  0
 19 15  2  0     0  0
  2  3  1  0     0  0
 18 20  2  0     0  0
 20 13  1  0     0  0
  5  6  2  0     0  0
 17 21  2  0     0  0
  6  1  1  0     0  0
 16 22  2  0     0  0
  1  2  2  0     0  0
 20 23  1  0     0  0
  9 14  2  0     0  0
 19 24  1  0     0  0
  8  7  1  0     0  0
 10 11  2  0     0  0
  1 25  1  0     0  0
M  END
>  <prID>
863

>  <IDDB>
227492

>  <pIC50_HIV_Integrase>
6.199970641

>  <Q>
-0.914971499

>  <Activity_Integrase>
Active_Integrase

NA
NA
NA
NA
$$$$

  Accelrys05311914302D 1   1.00000     0.00000     0

 24 27  0     0  0            999 V2000
    5.4005    0.4743    0.0000 C   0  0  0  0  0  0           0  0  0
    5.8104   -0.2444    0.0000 C   0  0  0  0  0  0           0  0  0
    6.6358   -0.2477    0.0000 C   0  0  0  0  0  0           0  0  0
    7.0524    0.4669    0.0000 C   0  0  0  0  0  0           0  0  0
    6.6374    1.1863    0.0000 N   0  0  0  0  0  0           0  0  0
    5.8133    1.1861    0.0000 C   0  0  0  0  0  0           0  0  0
    5.3917   -0.9542    0.0000 C   0  0  0  0  0  0           0  0  0
    4.7020   -0.9780    0.0000 N   0  0  3  0  0  0           0  0  0
    0.5583   -0.5333    0.0000 C   0  0  0  0  0  0           0  0  0
    0.5583   -1.3583    0.0000 C   0  0  0  0  0  0           0  0  0
    1.2704   -1.7667    0.0000 N   0  0  0  0  0  0           0  0  0
    1.9824   -1.3583    0.0000 C   0  0  0  0  0  0           0  0  0
    1.9824   -0.5333    0.0000 C   0  0  0  0  0  0           0  0  0
    1.2704   -0.1167    0.0000 N   0  0  0  0  0  0           0  0  0
    3.4200   -1.3544    0.0000 C   0  0  0  0  0  0           0  0  0
    4.1973   -1.6308    0.0000 C   0  0  0  0  0  0           0  0  0
    4.2344   -0.2952    0.0000 C   0  0  0  0  0  0           0  0  0
    3.4447   -0.5310    0.0000 C   0  0  0  0  0  0           0  0  0
    2.6997   -1.7694    0.0000 C   0  0  0  0  0  0           0  0  0
    2.6979   -0.1164    0.0000 C   0  0  0  0  0  0           0  0  0
    4.4458    0.5083    0.0000 O   0  0  0  0  0  0           0  0  0
    4.4083   -2.4250    0.0000 O   0  0  0  0  0  0           0  0  0
    2.6917    0.7125    0.0000 O   0  0  0  0  0  0           0  0  0
    2.6917   -2.5917    0.0000 O   0  0  0  0  0  0           0  0  0
 10 11  2  0     0  0
 11 12  1  0     0  0
 12 13  2  0     0  0
 13 14  1  0     0  0
 15 16  1  0     0  0
  2  7  1  0     0  0
  3  4  2  0     0  0
  9 10  1  0     0  0
 16  8  1  0     0  0
  8 17  1  0     0  0
 17 18  1  0     0  0
 18 15  1  0     0  0
  4  5  1  0     0  0
 12 19  1  0     0  0
 19 15  2  0     0  0
  2  3  1  0     0  0
 18 20  2  0     0  0
 20 13  1  0     0  0
  5  6  2  0     0  0
 17 21  2  0     0  0
  6  1  1  0     0  0
 16 22  2  0     0  0
  1  2  2  0     0  0
 20 23  1  0     0  0
  9 14  2  0     0  0
 19 24  1  0     0  0
  8  7  1  0     0  0
M  END
>  <prID>
864

>  <IDDB>
227493

>  <pIC50_HIV_Integrase>
5.169989064

>  <Q>
-1.033472278

>  <Activity_Integrase>
Inactive_Integrase

NA
NA
NA
NA
$$$$

  Accelrys05311914302D 1   1.00000     0.00000     0

 29 33  0     0  0            999 V2000
   10.3735   -4.7738    0.0000 S   0  0  0  0  0  0           0  0  0
    9.8786   -5.4412    0.0000 C   0  0  0  0  0  0           0  0  0
   10.3614   -6.1151    0.0000 C   0  0  0  0  0  0           0  0  0
   11.1519   -5.8646    0.0000 C   0  0  0  0  0  0           0  0  0
   11.1585   -5.0356    0.0000 C   0  0  0  0  0  0           0  0  0
    7.4275   -5.4352    0.0000 C   0  0  0  0  0  0           0  0  0
    7.8191   -4.7165    0.0000 C   0  0  0  0  0  0           0  0  0
    7.8145   -6.1527    0.0000 C   0  0  0  0  0  0           0  0  0
    8.6400   -6.1560    0.0000 C   0  0  0  0  0  0           0  0  0
    9.0566   -5.4415    0.0000 C   0  0  0  0  0  0           0  0  0
    8.6416   -4.7220    0.0000 C   0  0  0  0  0  0           0  0  0
    7.3958   -6.8625    0.0000 C   0  0  0  0  0  0           0  0  0
    6.0686   -6.8571    0.0000 N   0  0  3  0  0  0           0  0  0
    1.9250   -6.4125    0.0000 C   0  0  0  0  0  0           0  0  0
    1.9250   -7.2375    0.0000 C   0  0  0  0  0  0           0  0  0
    2.6370   -7.6458    0.0000 N   0  0  0  0  0  0           0  0  0
    3.3490   -7.2375    0.0000 C   0  0  0  0  0  0           0  0  0
    3.3490   -6.4125    0.0000 C   0  0  0  0  0  0           0  0  0
    2.6370   -5.9958    0.0000 N   0  0  0  0  0  0           0  0  0
    4.7866   -7.2336    0.0000 C   0  0  0  0  0  0           0  0  0
    5.5640   -7.5099    0.0000 C   0  0  0  0  0  0           0  0  0
    5.6010   -6.1743    0.0000 C   0  0  0  0  0  0           0  0  0
    4.8114   -6.4102    0.0000 C   0  0  0  0  0  0           0  0  0
    4.0664   -7.6485    0.0000 C   0  0  0  0  0  0           0  0  0
    4.0646   -5.9955    0.0000 C   0  0  0  0  0  0           0  0  0
    5.8125   -5.3708    0.0000 O   0  0  0  0  0  0           0  0  0
    5.7750   -8.3042    0.0000 O   0  0  0  0  0  0           0  0  0
    4.0583   -5.1667    0.0000 O   0  0  0  0  0  0           0  0  0
    4.0583   -8.4708    0.0000 O   0  0  0  0  0  0           0  0  0
  6  8  2  0     0  0
  3  4  1  0     0  0
  8  9  1  0     0  0
  4  5  2  0     0  0
 14 19  2  0     0  0
 15 16  2  0     0  0
 16 17  1  0     0  0
 17 18  2  0     0  0
 18 19  1  0     0  0
 20 21  1  0     0  0
  9 10  2  0     0  0
  5  1  1  0     0  0
 10 11  1  0     0  0
 11  7  2  0     0  0
 21 13  1  0     0  0
 13 22  1  0     0  0
 22 23  1  0     0  0
 23 20  1  0     0  0
  2  3  2  0     0  0
 17 24  1  0     0  0
 24 20  2  0     0  0
  8 12  1  0     0  0
 23 25  2  0     0  0
 25 18  1  0     0  0
 22 26  2  0     0  0
 14 15  1  0     0  0
 21 27  2  0     0  0
  6  7  1  0     0  0
 25 28  1  0     0  0
  1  2  1  0     0  0
 24 29  1  0     0  0
 13 12  1  0     0  0
 10  2  1  0     0  0
M  END
>  <prID>
865

>  <IDDB>
227494

>  <pIC50_HIV_Integrase>
6.170053304

>  <Q>
0.445211664

>  <Activity_Integrase>
Active_Integrase

NA
NA
NA
NA
$$$$

  Accelrys05311914302D 1   1.00000     0.00000     0

 31 35  0     0  0            999 V2000
    9.4922   -5.4463    0.0000 C   0  0  0  0  0  0           0  0  0
    9.8946   -6.1692    0.0000 C   0  0  0  0  0  0           0  0  0
   10.7200   -6.1811    0.0000 C   0  0  0  0  0  0           0  0  0
   11.1440   -5.4709    0.0000 C   0  0  0  0  0  0           0  0  0
   10.7365   -4.7472    0.0000 C   0  0  0  0  0  0           0  0  0
    9.9124   -4.7388    0.0000 C   0  0  0  0  0  0           0  0  0
    7.0442   -5.4394    0.0000 C   0  0  0  0  0  0           0  0  0
    7.4357   -4.7206    0.0000 C   0  0  0  0  0  0           0  0  0
    7.4312   -6.1569    0.0000 C   0  0  0  0  0  0           0  0  0
    8.2567   -6.1602    0.0000 C   0  0  0  0  0  0           0  0  0
    8.6732   -5.4456    0.0000 C   0  0  0  0  0  0           0  0  0
    8.2583   -4.7262    0.0000 C   0  0  0  0  0  0           0  0  0
    7.0125   -6.8667    0.0000 C   0  0  0  0  0  0           0  0  0
    6.0686   -6.8571    0.0000 N   0  0  3  0  0  0           0  0  0
    1.9250   -6.4125    0.0000 C   0  0  0  0  0  0           0  0  0
    1.9250   -7.2375    0.0000 C   0  0  0  0  0  0           0  0  0
    2.6370   -7.6458    0.0000 N   0  0  0  0  0  0           0  0  0
    3.3490   -7.2375    0.0000 C   0  0  0  0  0  0           0  0  0
    3.3490   -6.4125    0.0000 C   0  0  0  0  0  0           0  0  0
    2.6370   -5.9958    0.0000 N   0  0  0  0  0  0           0  0  0
    4.7866   -7.2336    0.0000 C   0  0  0  0  0  0           0  0  0
    5.5640   -7.5099    0.0000 C   0  0  0  0  0  0           0  0  0
    5.6010   -6.1743    0.0000 C   0  0  0  0  0  0           0  0  0
    4.8114   -6.4102    0.0000 C   0  0  0  0  0  0           0  0  0
    4.0664   -7.6485    0.0000 C   0  0  0  0  0  0           0  0  0
    4.0646   -5.9955    0.0000 C   0  0  0  0  0  0           0  0  0
    5.8125   -5.3708    0.0000 O   0  0  0  0  0  0           0  0  0
    5.7750   -8.3042    0.0000 O   0  0  0  0  0  0           0  0  0
    4.0583   -5.1667    0.0000 O   0  0  0  0  0  0           0  0  0
    4.0583   -8.4708    0.0000 O   0  0  0  0  0  0           0  0  0
    9.5083   -3.9042    0.0000 F   0  0  0  0  0  0           0  0  0
  7  9  2  0     0  0
  4  5  1  0     0  0
  9 10  1  0     0  0
 15 20  2  0     0  0
 16 17  2  0     0  0
 17 18  1  0     0  0
 18 19  2  0     0  0
 19 20  1  0     0  0
 21 22  1  0     0  0
  2  3  1  0     0  0
 10 11  2  0     0  0
  5  6  2  0     0  0
 11 12  1  0     0  0
 22 14  1  0     0  0
 14 23  1  0     0  0
 23 24  1  0     0  0
 24 21  1  0     0  0
 12  8  2  0     0  0
 18 25  1  0     0  0
 25 21  2  0     0  0
  6  1  1  0     0  0
 24 26  2  0     0  0
 26 19  1  0     0  0
  9 13  1  0     0  0
 23 27  2  0     0  0
  1  2  2  0     0  0
 22 28  2  0     0  0
 15 16  1  0     0  0
 26 29  1  0     0  0
  3  4  2  0     0  0
 25 30  1  0     0  0
 14 13  1  0     0  0
 11  1  1  0     0  0
  7  8  1  0     0  0
  6 31  1  0     0  0
M  END
>  <prID>
866

>  <IDDB>
227495

>  <pIC50_HIV_Integrase>
6.300162274

>  <Q>
-2.625633388

>  <Activity_Integrase>
Active_Integrase

NA
NA
NA
NA
$$$$

  Accelrys05311914302D 1   1.00000     0.00000     0

 31 35  0     0  0            999 V2000
    8.2542   -3.2887    0.0000 C   0  0  0  0  0  0           0  0  0
    8.6625   -4.0083    0.0000 C   0  0  0  0  0  0           0  0  0
    9.4880   -4.0136    0.0000 C   0  0  0  0  0  0           0  0  0
    9.9062   -3.2999    0.0000 C   0  0  0  0  0  0           0  0  0
    9.4928   -2.5796    0.0000 C   0  0  0  0  0  0           0  0  0
    8.6687   -2.5779    0.0000 C   0  0  0  0  0  0           0  0  0
    7.0442   -5.4394    0.0000 C   0  0  0  0  0  0           0  0  0
    7.4357   -4.7206    0.0000 C   0  0  0  0  0  0           0  0  0
    7.4312   -6.1569    0.0000 C   0  0  0  0  0  0           0  0  0
    8.2567   -6.1602    0.0000 C   0  0  0  0  0  0           0  0  0
    8.6732   -5.4456    0.0000 C   0  0  0  0  0  0           0  0  0
    8.2583   -4.7262    0.0000 C   0  0  0  0  0  0           0  0  0
    7.0125   -6.8667    0.0000 C   0  0  0  0  0  0           0  0  0
    6.0686   -6.8571    0.0000 N   0  0  3  0  0  0           0  0  0
    1.9250   -6.4125    0.0000 C   0  0  0  0  0  0           0  0  0
    1.9250   -7.2375    0.0000 C   0  0  0  0  0  0           0  0  0
    2.6370   -7.6458    0.0000 N   0  0  0  0  0  0           0  0  0
    3.3490   -7.2375    0.0000 C   0  0  0  0  0  0           0  0  0
    3.3490   -6.4125    0.0000 C   0  0  0  0  0  0           0  0  0
    2.6370   -5.9958    0.0000 N   0  0  0  0  0  0           0  0  0
    4.7866   -7.2336    0.0000 C   0  0  0  0  0  0           0  0  0
    5.5640   -7.5099    0.0000 C   0  0  0  0  0  0           0  0  0
    5.6010   -6.1743    0.0000 C   0  0  0  0  0  0           0  0  0
    4.8114   -6.4102    0.0000 C   0  0  0  0  0  0           0  0  0
    4.0664   -7.6485    0.0000 C   0  0  0  0  0  0           0  0  0
    4.0646   -5.9955    0.0000 C   0  0  0  0  0  0           0  0  0
    5.8125   -5.3708    0.0000 O   0  0  0  0  0  0           0  0  0
    5.7750   -8.3042    0.0000 O   0  0  0  0  0  0           0  0  0
    4.0583   -5.1667    0.0000 O   0  0  0  0  0  0           0  0  0
    4.0583   -8.4708    0.0000 O   0  0  0  0  0  0           0  0  0
    7.4292   -3.2875    0.0000 F   0  0  0  0  0  0           0  0  0
  7  9  2  0     0  0
  4  5  1  0     0  0
  9 10  1  0     0  0
 15 20  2  0     0  0
 16 17  2  0     0  0
 17 18  1  0     0  0
 18 19  2  0     0  0
 19 20  1  0     0  0
 21 22  1  0     0  0
  2  3  1  0     0  0
 10 11  2  0     0  0
  5  6  2  0     0  0
 11 12  1  0     0  0
 22 14  1  0     0  0
 14 23  1  0     0  0
 23 24  1  0     0  0
 24 21  1  0     0  0
 12  8  2  0     0  0
 18 25  1  0     0  0
 25 21  2  0     0  0
  6  1  1  0     0  0
 24 26  2  0     0  0
 26 19  1  0     0  0
  9 13  1  0     0  0
 23 27  2  0     0  0
  1  2  2  0     0  0
 22 28  2  0     0  0
 15 16  1  0     0  0
 26 29  1  0     0  0
  3  4  2  0     0  0
 25 30  1  0     0  0
 14 13  1  0     0  0
 12  2  1  0     0  0
  7  8  1  0     0  0
  1 31  1  0     0  0
M  END
>  <prID>
867

>  <IDDB>
227496

>  <pIC50_HIV_Integrase>
6

>  <Q>
-2.632026544

>  <Activity_Integrase>
Inactive_Integrase

NA
NA
NA
NA
$$$$

  Accelrys05311914302D 1   1.00000     0.00000     0

 30 34  0     0  0            999 V2000
    8.2542   -3.2887    0.0000 C   0  0  0  0  0  0           0  0  0
    8.6625   -4.0083    0.0000 C   0  0  0  0  0  0           0  0  0
    9.4880   -4.0136    0.0000 C   0  0  0  0  0  0           0  0  0
    9.9062   -3.2999    0.0000 C   0  0  0  0  0  0           0  0  0
    9.4928   -2.5796    0.0000 C   0  0  0  0  0  0           0  0  0
    8.6687   -2.5779    0.0000 C   0  0  0  0  0  0           0  0  0
    7.0442   -5.4394    0.0000 C   0  0  0  0  0  0           0  0  0
    7.4357   -4.7206    0.0000 C   0  0  0  0  0  0           0  0  0
    7.4312   -6.1569    0.0000 C   0  0  0  0  0  0           0  0  0
    8.2567   -6.1602    0.0000 C   0  0  0  0  0  0           0  0  0
    8.6732   -5.4456    0.0000 C   0  0  0  0  0  0           0  0  0
    8.2583   -4.7262    0.0000 C   0  0  0  0  0  0           0  0  0
    7.0125   -6.8667    0.0000 C   0  0  0  0  0  0           0  0  0
    6.0686   -6.8571    0.0000 N   0  0  3  0  0  0           0  0  0
    1.9250   -6.4125    0.0000 C   0  0  0  0  0  0           0  0  0
    1.9250   -7.2375    0.0000 C   0  0  0  0  0  0           0  0  0
    2.6370   -7.6458    0.0000 N   0  0  0  0  0  0           0  0  0
    3.3490   -7.2375    0.0000 C   0  0  0  0  0  0           0  0  0
    3.3490   -6.4125    0.0000 C   0  0  0  0  0  0           0  0  0
    2.6370   -5.9958    0.0000 N   0  0  0  0  0  0           0  0  0
    4.7866   -7.2336    0.0000 C   0  0  0  0  0  0           0  0  0
    5.5640   -7.5099    0.0000 C   0  0  0  0  0  0           0  0  0
    5.6010   -6.1743    0.0000 C   0  0  0  0  0  0           0  0  0
    4.8114   -6.4102    0.0000 C   0  0  0  0  0  0           0  0  0
    4.0664   -7.6485    0.0000 C   0  0  0  0  0  0           0  0  0
    4.0646   -5.9955    0.0000 C   0  0  0  0  0  0           0  0  0
    5.8125   -5.3708    0.0000 O   0  0  0  0  0  0           0  0  0
    5.7750   -8.3042    0.0000 O   0  0  0  0  0  0           0  0  0
    4.0583   -5.1667    0.0000 O   0  0  0  0  0  0           0  0  0
    4.0583   -8.4708    0.0000 O   0  0  0  0  0  0           0  0  0
  7  8  1  0     0  0
  7  9  2  0     0  0
  4  5  1  0     0  0
  9 10  1  0     0  0
 15 20  2  0     0  0
 16 17  2  0     0  0
 17 18  1  0     0  0
 18 19  2  0     0  0
 19 20  1  0     0  0
 21 22  1  0     0  0
  2  3  1  0     0  0
 10 11  2  0     0  0
  5  6  2  0     0  0
 11 12  1  0     0  0
 22 14  1  0     0  0
 14 23  1  0     0  0
 23 24  1  0     0  0
 24 21  1  0     0  0
 12  8  2  0     0  0
 18 25  1  0     0  0
 25 21  2  0     0  0
  6  1  1  0     0  0
 24 26  2  0     0  0
 26 19  1  0     0  0
  9 13  1  0     0  0
 23 27  2  0     0  0
  1  2  2  0     0  0
 22 28  2  0     0  0
 15 16  1  0     0  0
 26 29  1  0     0  0
  3  4  2  0     0  0
 25 30  1  0     0  0
 14 13  1  0     0  0
 12  2  1  0     0  0
M  END
>  <prID>
868

>  <IDDB>
227497

>  <pIC50_HIV_Integrase>
5.840132153

>  <Q>
-0.19283953

>  <Activity_Integrase>
Inactive_Integrase

NA
NA
NA
NA
$$$$

  Accelrys05311914302D 1   1.00000     0.00000     0

 25 28  0     0  0            999 V2000
    8.4275   -6.0477    0.0000 C   0  0  0  0  0  0           0  0  0
    8.8191   -5.3290    0.0000 C   0  0  0  0  0  0           0  0  0
    8.8145   -6.7652    0.0000 C   0  0  0  0  0  0           0  0  0
    9.6400   -6.7685    0.0000 C   0  0  0  0  0  0           0  0  0
   10.0566   -6.0540    0.0000 C   0  0  0  0  0  0           0  0  0
    9.6416   -5.3345    0.0000 C   0  0  0  0  0  0           0  0  0
    7.0125   -6.8667    0.0000 C   0  0  0  0  0  0           0  0  0
    6.0686   -6.8571    0.0000 N   0  0  3  0  0  0           0  0  0
    1.9250   -6.4125    0.0000 C   0  0  0  0  0  0           0  0  0
    1.9250   -7.2375    0.0000 C   0  0  0  0  0  0           0  0  0
    2.6370   -7.6458    0.0000 N   0  0  0  0  0  0           0  0  0
    3.3490   -7.2375    0.0000 C   0  0  0  0  0  0           0  0  0
    3.3490   -6.4125    0.0000 C   0  0  0  0  0  0           0  0  0
    2.6370   -5.9958    0.0000 N   0  0  0  0  0  0           0  0  0
    4.7866   -7.2336    0.0000 C   0  0  0  0  0  0           0  0  0
    5.5640   -7.5099    0.0000 C   0  0  0  0  0  0           0  0  0
    5.6010   -6.1743    0.0000 C   0  0  0  0  0  0           0  0  0
    4.8114   -6.4102    0.0000 C   0  0  0  0  0  0           0  0  0
    4.0664   -7.6485    0.0000 C   0  0  0  0  0  0           0  0  0
    4.0646   -5.9955    0.0000 C   0  0  0  0  0  0           0  0  0
    5.8125   -5.3708    0.0000 O   0  0  0  0  0  0           0  0  0
    5.7750   -8.3042    0.0000 O   0  0  0  0  0  0           0  0  0
    4.0583   -5.1667    0.0000 O   0  0  0  0  0  0           0  0  0
    4.0583   -8.4708    0.0000 O   0  0  0  0  0  0           0  0  0
    7.4833   -6.0458    0.0000 C   0  0  0  0  0  0           0  0  0
 12 13  2  0     0  0
 13 14  1  0     0  0
 15 16  1  0     0  0
  3  4  1  0     0  0
  9 10  1  0     0  0
  4  5  2  0     0  0
 16  8  1  0     0  0
  8 17  1  0     0  0
 17 18  1  0     0  0
 18 15  1  0     0  0
  1  3  2  0     0  0
 12 19  1  0     0  0
 19 15  2  0     0  0
  5  6  1  0     0  0
 18 20  2  0     0  0
 20 13  1  0     0  0
  6  2  2  0     0  0
 17 21  2  0     0  0
  1  2  1  0     0  0
 16 22  2  0     0  0
  9 14  2  0     0  0
 20 23  1  0     0  0
 10 11  2  0     0  0
 19 24  1  0     0  0
  8  7  1  0     0  0
 11 12  1  0     0  0
  7 25  1  0     0  0
 25  1  1  0     0  0
M  END
>  <prID>
869

>  <IDDB>
227498

>  <pIC50_HIV_Integrase>
5.689944262

>  <Q>
-1.172678292

>  <Activity_Integrase>
Inactive_Integrase

NA
NA
NA
NA
$$$$

  Accelrys05311914302D 1   1.00000     0.00000     0

 25 26  0     0  0            999 V2000
    8.6574   -1.7125    0.0000 N   0  0  0  0  0  0           0  0  0
    9.3616   -1.7208    0.0000 N   0  3  0  0  0  0           0  0  0
   10.0782   -1.7208    0.0000 N   0  5  0  0  0  0           0  0  0
    7.9449   -2.1292    0.0000 C   0  0  0  0  0  0           0  0  0
    7.9449   -2.9542    0.0000 C   0  0  0  0  0  0           0  0  0
    7.2329   -3.3625    0.0000 N   0  0  3  0  0  0           0  0  0
    6.5209   -2.9542    0.0000 C   0  0  0  0  0  0           0  0  0
    6.5209   -2.1292    0.0000 N   0  0  0  0  0  0           0  0  0
    7.2329   -1.7125    0.0000 C   0  0  0  0  0  0           0  0  0
    7.2407   -0.8875    0.0000 O   0  0  0  0  0  0           0  0  0
    5.8116   -3.3667    0.0000 O   0  0  0  0  0  0           0  0  0
    7.2375   -4.8459    0.0000 C   0  0  1  0  0  0           0  0  0
    6.1208   -5.5626    0.0000 C   0  0  1  0  0  0           0  0  0
    6.8667   -5.5626    0.0000 C   0  0  0  0  0  0           0  0  0
    6.5292   -4.2792    0.0000 O   0  0  0  0  0  0           0  0  0
    5.7516   -4.8493    0.0000 C   0  0  2  0  0  0           0  0  0
    5.3334   -4.1292    0.0000 C   0  0  0  0  0  0           0  0  0
    4.5084   -4.1250    0.0000 O   0  0  0  0  0  0           0  0  0
    3.6834   -4.1250    0.0000 P   0  0  3  0  0  0           0  0  0
    2.8584   -4.1250    0.0000 O   0  0  0  0  0  0           0  0  0
    3.6792   -3.3000    0.0000 O   0  0  0  0  0  0           0  0  0
    3.6792   -4.9500    0.0000 O   0  0  0  0  0  0           0  0  0
    5.5292   -6.1459    0.0000 N   0  0  0  0  0  0           0  0  0
    4.8250   -6.1542    0.0000 N   0  3  0  0  0  0           0  0  0
    4.1084   -6.1542    0.0000 N   0  5  0  0  0  0           0  0  0
  1  2  2  0     0  0
  2  3  2  0     0  0
  7  8  1  0     0  0
  8  9  1  0     0  0
 14 12  1  0     0  0
 12 15  1  0     0  0
 15 16  1  0     0  0
 16 13  1  0     0  0
  9 10  2  0     0  0
 16 17  1  1     0  0
  4  5  2  0     0  0
 17 18  1  0     0  0
  7 11  2  0     0  0
 18 19  1  0     0  0
  4  9  1  0     0  0
 19 20  1  0     0  0
  4  1  1  0     0  0
 19 21  2  0     0  0
  5  6  1  0     0  0
 19 22  1  0     0  0
 12  6  1  1     0  0
 13 23  1  6     0  0
 13 14  1  0     0  0
 23 24  2  0     0  0
  6  7  1  0     0  0
 24 25  2  0     0  0
M  CHG  4   2   1   3  -1  24   1  25  -1
M  END
>  <prID>
870

>  <IDDB>
227875

>  <pIC50_HIV_Integrase>
4.301029996

>  <Q>
-6.591772302

>  <Activity_Integrase>
Inactive_Integrase

NA
NA
NA
NA
$$$$

  Accelrys05311914302D 1   1.00000     0.00000     0

 30 33  0     0  0            999 V2000
    3.9620   -4.7727    0.0000 C   0  0  0  0  0  0           0  0  0
    4.6745   -5.1810    0.0000 C   0  0  0  0  0  0           0  0  0
    5.3870   -4.7685    0.0000 N   0  0  0  0  0  0           0  0  0
    6.0995   -5.1769    0.0000 C   0  0  0  0  0  0           0  0  0
    6.8120   -4.7644    0.0000 C   0  0  0  0  0  0           0  0  0
    2.5319   -3.9458    0.0000 C   0  0  0  0  0  0           0  0  0
    2.5307   -4.7732    0.0000 C   0  0  0  0  0  0           0  0  0
    3.2456   -5.1860    0.0000 C   0  0  0  0  0  0           0  0  0
    3.9591   -3.9422    0.0000 C   0  0  0  0  0  0           0  0  0
    3.2438   -3.5330    0.0000 C   0  0  0  0  0  0           0  0  0
    6.8083   -1.4583    0.0000 C   0  0  0  0  0  0           0  0  0
    6.8083   -2.2833    0.0000 N   0  0  0  0  0  0           0  0  0
    7.5204   -2.6917    0.0000 C   0  0  3  0  0  0           0  0  0
    8.2324   -2.2833    0.0000 C   0  0  0  0  0  0           0  0  0
    8.2324   -1.4583    0.0000 C   0  0  0  0  0  0           0  0  0
    7.5204   -1.0417    0.0000 N   0  0  0  0  0  0           0  0  0
    8.2402   -3.9291    0.0000 C   0  0  0  0  0  0           0  0  0
    8.2391   -4.7565    0.0000 C   0  0  0  0  0  0           0  0  0
    8.9539   -5.1694    0.0000 N   0  0  0  0  0  0           0  0  0
    9.6703   -4.7560    0.0000 C   0  0  0  0  0  0           0  0  0
    9.6675   -3.9255    0.0000 C   0  0  0  0  0  0           0  0  0
    8.9521   -3.5164    0.0000 C   0  0  0  0  0  0           0  0  0
    6.8111   -3.9333    0.0000 N   0  0  0  0  0  0           0  0  0
    7.5247   -5.1735    0.0000 C   0  0  0  0  0  0           0  0  0
    7.5229   -3.5205    0.0000 C   0  0  0  0  0  0           0  0  0
    6.0917   -6.0000    0.0000 O   0  0  0  0  0  0           0  0  0
    7.5167   -5.9958    0.0000 O   0  0  0  0  0  0           0  0  0
    1.8125   -3.5292    0.0000 F   0  0  0  0  0  0           0  0  0
    8.9417   -1.0417    0.0000 O   0  0  0  0  0  0           0  0  0
    6.0917   -1.0458    0.0000 O   0  0  0  0  0  0           0  0  0
 13 14  1  0     0  0
 14 15  1  0     0  0
 15 16  1  0     0  0
  1  9  1  0     0  0
 17 18  2  0     0  0
  4  5  1  0     0  0
 18 19  1  0     0  0
  9 10  2  0     0  0
 19 20  2  0     0  0
 10  6  1  0     0  0
 20 21  1  0     0  0
 11 12  1  0     0  0
 21 22  2  0     0  0
 22 17  1  0     0  0
  2  3  1  0     0  0
 23  5  1  0     0  0
  1  2  1  0     0  0
  5 24  2  0     0  0
 24 18  1  0     0  0
  6  7  2  0     0  0
 17 25  1  0     0  0
 25 23  2  0     0  0
 13 25  1  0     0  0
  3  4  1  0     0  0
  4 26  2  0     0  0
  7  8  1  0     0  0
 24 27  1  0     0  0
  8  1  2  0     0  0
  6 28  1  0     0  0
 11 16  1  0     0  0
 15 29  2  0     0  0
 12 13  1  0     0  0
 11 30  2  0     0  0
M  END
>  <prID>
871

>  <IDDB>
228381

>  <pIC50_HIV_Integrase>
7.958607315

>  <Q>
-5.685899407

>  <Activity_Integrase>
Active_Integrase

NA
NA
NA
NA
$$$$

  Accelrys05311914302D 1   1.00000     0.00000     0

 31 34  0     0  0            999 V2000
    3.9620   -4.7727    0.0000 C   0  0  0  0  0  0           0  0  0
    4.6745   -5.1810    0.0000 C   0  0  0  0  0  0           0  0  0
    5.3870   -4.7685    0.0000 N   0  0  0  0  0  0           0  0  0
    6.0995   -5.1769    0.0000 C   0  0  0  0  0  0           0  0  0
    6.8120   -4.7644    0.0000 C   0  0  0  0  0  0           0  0  0
    2.5319   -3.9458    0.0000 C   0  0  0  0  0  0           0  0  0
    2.5307   -4.7732    0.0000 C   0  0  0  0  0  0           0  0  0
    3.2456   -5.1860    0.0000 C   0  0  0  0  0  0           0  0  0
    3.9591   -3.9422    0.0000 C   0  0  0  0  0  0           0  0  0
    3.2438   -3.5330    0.0000 C   0  0  0  0  0  0           0  0  0
    6.8083   -1.4583    0.0000 C   0  0  0  0  0  0           0  0  0
    6.8083   -2.2833    0.0000 N   0  0  3  0  0  0           0  0  0
    7.5204   -2.6917    0.0000 C   0  0  3  0  0  0           0  0  0
    8.2324   -2.2833    0.0000 C   0  0  0  0  0  0           0  0  0
    8.2324   -1.4583    0.0000 C   0  0  0  0  0  0           0  0  0
    7.5204   -1.0417    0.0000 N   0  0  0  0  0  0           0  0  0
    8.2402   -3.9291    0.0000 C   0  0  0  0  0  0           0  0  0
    8.2391   -4.7565    0.0000 C   0  0  0  0  0  0           0  0  0
    8.9539   -5.1694    0.0000 N   0  0  0  0  0  0           0  0  0
    9.6703   -4.7560    0.0000 C   0  0  0  0  0  0           0  0  0
    9.6675   -3.9255    0.0000 C   0  0  0  0  0  0           0  0  0
    8.9521   -3.5164    0.0000 C   0  0  0  0  0  0           0  0  0
    6.8111   -3.9333    0.0000 N   0  0  0  0  0  0           0  0  0
    7.5247   -5.1735    0.0000 C   0  0  0  0  0  0           0  0  0
    7.5229   -3.5205    0.0000 C   0  0  0  0  0  0           0  0  0
    6.0917   -6.0000    0.0000 O   0  0  0  0  0  0           0  0  0
    7.5167   -5.9958    0.0000 O   0  0  0  0  0  0           0  0  0
    1.8125   -3.5292    0.0000 F   0  0  0  0  0  0           0  0  0
    8.9417   -1.0417    0.0000 O   0  0  0  0  0  0           0  0  0
    6.0917   -1.0458    0.0000 O   0  0  0  0  0  0           0  0  0
    6.0917   -2.6917    0.0000 C   0  0  0  0  0  0           0  0  0
 14 15  1  0     0  0
 15 16  1  0     0  0
  1  9  1  0     0  0
 17 18  2  0     0  0
  4  5  1  0     0  0
 18 19  1  0     0  0
  9 10  2  0     0  0
 19 20  2  0     0  0
 10  6  1  0     0  0
 20 21  1  0     0  0
 11 12  1  0     0  0
 21 22  2  0     0  0
 22 17  1  0     0  0
  2  3  1  0     0  0
 23  5  1  0     0  0
  1  2  1  0     0  0
  5 24  2  0     0  0
 24 18  1  0     0  0
  6  7  2  0     0  0
 17 25  1  0     0  0
 25 23  2  0     0  0
 13 25  1  0     0  0
  3  4  1  0     0  0
  4 26  2  0     0  0
  7  8  1  0     0  0
 24 27  1  0     0  0
  8  1  2  0     0  0
  6 28  1  0     0  0
 11 16  1  0     0  0
 15 29  2  0     0  0
 12 13  1  0     0  0
 11 30  2  0     0  0
 13 14  1  0     0  0
 12 31  1  0     0  0
M  END
>  <prID>
872

>  <IDDB>
228382

>  <pIC50_HIV_Integrase>
7.903089987

>  <Q>
-4.605522195

>  <Activity_Integrase>
Active_Integrase

NA
NA
NA
NA
$$$$

  Accelrys05311914302D 1   1.00000     0.00000     0

 31 34  0     0  0            999 V2000
    2.2703   -4.5852    0.0000 C   0  0  0  0  0  0           0  0  0
    2.9828   -4.9935    0.0000 C   0  0  0  0  0  0           0  0  0
    3.6953   -4.5810    0.0000 N   0  0  0  0  0  0           0  0  0
    4.4078   -4.9894    0.0000 C   0  0  0  0  0  0           0  0  0
    5.1203   -4.5769    0.0000 C   0  0  0  0  0  0           0  0  0
    0.8402   -3.7583    0.0000 C   0  0  0  0  0  0           0  0  0
    0.8391   -4.5857    0.0000 C   0  0  0  0  0  0           0  0  0
    1.5539   -4.9985    0.0000 C   0  0  0  0  0  0           0  0  0
    2.2675   -3.7547    0.0000 C   0  0  0  0  0  0           0  0  0
    1.5521   -3.3455    0.0000 C   0  0  0  0  0  0           0  0  0
    5.1167   -1.2708    0.0000 C   0  0  0  0  0  0           0  0  0
    5.1167   -2.0958    0.0000 N   0  0  0  0  0  0           0  0  0
    5.8287   -2.5042    0.0000 C   0  0  3  0  0  0           0  0  0
    6.5407   -2.0958    0.0000 C   0  0  0  0  0  0           0  0  0
    6.5407   -1.2708    0.0000 C   0  0  0  0  0  0           0  0  0
    5.8287   -0.8542    0.0000 N   0  0  3  0  0  0           0  0  0
    6.5486   -3.7416    0.0000 C   0  0  0  0  0  0           0  0  0
    6.5474   -4.5690    0.0000 C   0  0  0  0  0  0           0  0  0
    7.2622   -4.9819    0.0000 N   0  0  0  0  0  0           0  0  0
    7.9787   -4.5685    0.0000 C   0  0  0  0  0  0           0  0  0
    7.9758   -3.7380    0.0000 C   0  0  0  0  0  0           0  0  0
    7.2604   -3.3289    0.0000 C   0  0  0  0  0  0           0  0  0
    5.1194   -3.7458    0.0000 N   0  0  0  0  0  0           0  0  0
    5.8331   -4.9860    0.0000 C   0  0  0  0  0  0           0  0  0
    5.8313   -3.3330    0.0000 C   0  0  0  0  0  0           0  0  0
    4.4000   -5.8125    0.0000 O   0  0  0  0  0  0           0  0  0
    5.8250   -5.8083    0.0000 O   0  0  0  0  0  0           0  0  0
    0.1208   -3.3417    0.0000 F   0  0  0  0  0  0           0  0  0
    7.2500   -0.8542    0.0000 O   0  0  0  0  0  0           0  0  0
    4.4000   -0.8583    0.0000 O   0  0  0  0  0  0           0  0  0
    5.8208   -0.0292    0.0000 C   0  0  0  0  0  0           0  0  0
 14 15  1  0     0  0
 15 16  1  0     0  0
  1  9  1  0     0  0
 17 18  2  0     0  0
  4  5  1  0     0  0
 18 19  1  0     0  0
  9 10  2  0     0  0
 19 20  2  0     0  0
 10  6  1  0     0  0
 20 21  1  0     0  0
 11 12  1  0     0  0
 21 22  2  0     0  0
 22 17  1  0     0  0
  2  3  1  0     0  0
 23  5  1  0     0  0
  1  2  1  0     0  0
  5 24  2  0     0  0
 24 18  1  0     0  0
  6  7  2  0     0  0
 17 25  1  0     0  0
 25 23  2  0     0  0
 13 25  1  0     0  0
  3  4  1  0     0  0
  4 26  2  0     0  0
  7  8  1  0     0  0
 24 27  1  0     0  0
  8  1  2  0     0  0
  6 28  1  0     0  0
 11 16  1  0     0  0
 15 29  2  0     0  0
 12 13  1  0     0  0
 11 30  2  0     0  0
 13 14  1  0     0  0
 16 31  1  0     0  0
M  END
>  <prID>
873

>  <IDDB>
228383

>  <pIC50_HIV_Integrase>
7.89279003

>  <Q>
-4.542224656

>  <Activity_Integrase>
Active_Integrase

NA
NA
NA
NA
$$$$

  Accelrys05311914302D 1   1.00000     0.00000     0

 32 35  0     0  0            999 V2000
    3.9620   -4.7727    0.0000 C   0  0  0  0  0  0           0  0  0
    4.6745   -5.1810    0.0000 C   0  0  0  0  0  0           0  0  0
    5.3870   -4.7685    0.0000 N   0  0  0  0  0  0           0  0  0
    6.0995   -5.1769    0.0000 C   0  0  0  0  0  0           0  0  0
    6.8120   -4.7644    0.0000 C   0  0  0  0  0  0           0  0  0
    2.5319   -3.9458    0.0000 C   0  0  0  0  0  0           0  0  0
    2.5307   -4.7732    0.0000 C   0  0  0  0  0  0           0  0  0
    3.2456   -5.1860    0.0000 C   0  0  0  0  0  0           0  0  0
    3.9591   -3.9422    0.0000 C   0  0  0  0  0  0           0  0  0
    3.2438   -3.5330    0.0000 C   0  0  0  0  0  0           0  0  0
    6.8083   -1.4583    0.0000 C   0  0  0  0  0  0           0  0  0
    6.8083   -2.2833    0.0000 N   0  0  3  0  0  0           0  0  0
    7.5204   -2.6917    0.0000 C   0  0  3  0  0  0           0  0  0
    8.2324   -2.2833    0.0000 C   0  0  0  0  0  0           0  0  0
    8.2324   -1.4583    0.0000 C   0  0  0  0  0  0           0  0  0
    7.5204   -1.0417    0.0000 N   0  0  3  0  0  0           0  0  0
    8.2402   -3.9291    0.0000 C   0  0  0  0  0  0           0  0  0
    8.2391   -4.7565    0.0000 C   0  0  0  0  0  0           0  0  0
    8.9539   -5.1694    0.0000 N   0  0  0  0  0  0           0  0  0
    9.6703   -4.7560    0.0000 C   0  0  0  0  0  0           0  0  0
    9.6675   -3.9255    0.0000 C   0  0  0  0  0  0           0  0  0
    8.9521   -3.5164    0.0000 C   0  0  0  0  0  0           0  0  0
    6.8111   -3.9333    0.0000 N   0  0  0  0  0  0           0  0  0
    7.5247   -5.1735    0.0000 C   0  0  0  0  0  0           0  0  0
    7.5229   -3.5205    0.0000 C   0  0  0  0  0  0           0  0  0
    6.0917   -6.0000    0.0000 O   0  0  0  0  0  0           0  0  0
    7.5167   -5.9958    0.0000 O   0  0  0  0  0  0           0  0  0
    1.8125   -3.5292    0.0000 F   0  0  0  0  0  0           0  0  0
    8.9417   -1.0417    0.0000 O   0  0  0  0  0  0           0  0  0
    6.0917   -1.0458    0.0000 O   0  0  0  0  0  0           0  0  0
    7.5125   -0.2167    0.0000 C   0  0  0  0  0  0           0  0  0
    6.0917   -2.6917    0.0000 C   0  0  0  0  0  0           0  0  0
 15 16  1  0     0  0
  1  9  1  0     0  0
 17 18  2  0     0  0
  4  5  1  0     0  0
 18 19  1  0     0  0
  9 10  2  0     0  0
 19 20  2  0     0  0
 10  6  1  0     0  0
 20 21  1  0     0  0
 11 12  1  0     0  0
 21 22  2  0     0  0
 22 17  1  0     0  0
  2  3  1  0     0  0
 23  5  1  0     0  0
  1  2  1  0     0  0
  5 24  2  0     0  0
 24 18  1  0     0  0
  6  7  2  0     0  0
 17 25  1  0     0  0
 25 23  2  0     0  0
 13 25  1  0     0  0
  3  4  1  0     0  0
  4 26  2  0     0  0
  7  8  1  0     0  0
 24 27  1  0     0  0
  8  1  2  0     0  0
  6 28  1  0     0  0
 11 16  1  0     0  0
 15 29  2  0     0  0
 12 13  1  0     0  0
 11 30  2  0     0  0
 13 14  1  0     0  0
 16 31  1  0     0  0
 14 15  1  0     0  0
 12 32  1  0     0  0
M  END
>  <prID>
874

>  <IDDB>
228384

>  <pIC50_HIV_Integrase>
7.946921557

>  <Q>
-3.455669094

>  <Activity_Integrase>
Active_Integrase

NA
NA
NA
NA
$$$$

  Accelrys05311914302D 1   1.00000     0.00000     0

 32 35  0     0  0            999 V2000
    3.9620   -4.7727    0.0000 C   0  0  0  0  0  0           0  0  0
    4.6745   -5.1810    0.0000 C   0  0  0  0  0  0           0  0  0
    5.3870   -4.7685    0.0000 N   0  0  0  0  0  0           0  0  0
    6.0995   -5.1769    0.0000 C   0  0  0  0  0  0           0  0  0
    6.8120   -4.7644    0.0000 C   0  0  0  0  0  0           0  0  0
    2.5319   -3.9458    0.0000 C   0  0  0  0  0  0           0  0  0
    2.5307   -4.7732    0.0000 C   0  0  0  0  0  0           0  0  0
    3.2456   -5.1860    0.0000 C   0  0  0  0  0  0           0  0  0
    3.9591   -3.9422    0.0000 C   0  0  0  0  0  0           0  0  0
    3.2438   -3.5330    0.0000 C   0  0  0  0  0  0           0  0  0
    6.8083   -1.4583    0.0000 C   0  0  0  0  0  0           0  0  0
    6.8083   -2.2833    0.0000 N   0  0  3  0  0  0           0  0  0
    7.5204   -2.6917    0.0000 C   0  0  0  0  0  0           0  0  0
    8.2324   -2.2833    0.0000 C   0  0  0  0  0  0           0  0  0
    8.2324   -1.4583    0.0000 C   0  0  0  0  0  0           0  0  0
    7.5204   -1.0417    0.0000 N   0  0  3  0  0  0           0  0  0
    8.2402   -3.9291    0.0000 C   0  0  0  0  0  0           0  0  0
    8.2391   -4.7565    0.0000 C   0  0  0  0  0  0           0  0  0
    8.9539   -5.1694    0.0000 N   0  0  0  0  0  0           0  0  0
    9.6703   -4.7560    0.0000 C   0  0  0  0  0  0           0  0  0
    9.6675   -3.9255    0.0000 C   0  0  0  0  0  0           0  0  0
    8.9521   -3.5164    0.0000 C   0  0  0  0  0  0           0  0  0
    6.8111   -3.9333    0.0000 N   0  0  0  0  0  0           0  0  0
    7.5247   -5.1735    0.0000 C   0  0  0  0  0  0           0  0  0
    7.5229   -3.5205    0.0000 C   0  0  0  0  0  0           0  0  0
    6.0917   -6.0000    0.0000 O   0  0  0  0  0  0           0  0  0
    7.5167   -5.9958    0.0000 O   0  0  0  0  0  0           0  0  0
    1.8125   -3.5292    0.0000 F   0  0  0  0  0  0           0  0  0
    8.9417   -1.0417    0.0000 O   0  0  0  0  0  0           0  0  0
    6.0917   -1.0458    0.0000 O   0  0  0  0  0  0           0  0  0
    7.5125   -0.2167    0.0000 C   0  0  0  0  0  0           0  0  0
    6.0917   -2.6917    0.0000 C   0  0  0  0  0  0           0  0  0
 15 16  1  0     0  0
  1  9  1  0     0  0
 17 18  2  0     0  0
  4  5  1  0     0  0
 18 19  1  0     0  0
  9 10  2  0     0  0
 19 20  2  0     0  0
 10  6  1  0     0  0
 20 21  1  0     0  0
 11 12  1  0     0  0
 21 22  2  0     0  0
 22 17  1  0     0  0
  2  3  1  0     0  0
 23  5  1  0     0  0
  1  2  1  0     0  0
  5 24  2  0     0  0
 24 18  1  0     0  0
  6  7  2  0     0  0
 17 25  1  0     0  0
 25 23  2  0     0  0
 13 25  1  0     0  0
  3  4  1  0     0  0
  4 26  2  0     0  0
  7  8  1  0     0  0
 24 27  1  0     0  0
  8  1  2  0     0  0
  6 28  1  0     0  0
 11 16  1  0     0  0
 15 29  2  0     0  0
 12 13  1  0     0  0
 11 30  2  0     0  0
 13 14  2  0     0  0
 16 31  1  0     0  0
 14 15  1  0     0  0
 12 32  1  0     0  0
M  END
>  <prID>
875

>  <IDDB>
228389

>  <pIC50_HIV_Integrase>
7.560667306

>  <Q>
-2.706804135

>  <Activity_Integrase>
Active_Integrase

NA
NA
NA
NA
$$$$

  Accelrys05311914302D 1   1.00000     0.00000     0

 30 32  0     0  0            999 V2000
    4.7667   -2.9042    0.0000 N   0  0  3  0  0  0           0  0  0
    6.1875   -2.9042    0.0000 C   0  0  0  0  0  0           0  0  0
    4.7667   -3.7292    0.0000 C   0  0  0  0  0  0           0  0  0
    5.4750   -2.4875    0.0000 C   0  0  0  0  0  0           0  0  0
    5.4750   -4.1292    0.0000 N   0  0  3  0  0  0           0  0  0
    6.1875   -3.7292    0.0000 C   0  0  0  0  0  0           0  0  0
    6.9042   -2.4917    0.0000 C   0  0  0  0  0  0           0  0  0
    7.6167   -2.9042    0.0000 C   0  0  0  0  0  0           0  0  0
    8.3292   -2.4917    0.0000 C   0  0  0  0  0  0           0  0  0
    9.0417   -2.9125    0.0000 C   0  0  0  0  0  0           0  0  0
    4.0500   -2.4917    0.0000 C   0  0  0  0  0  0           0  0  0
    5.4750   -4.9625    0.0000 C   0  0  0  0  0  0           0  0  0
    4.0500   -4.1417    0.0000 O   0  0  0  0  0  0           0  0  0
    5.4750   -1.6625    0.0000 O   0  0  0  0  0  0           0  0  0
    6.9042   -1.6667    0.0000 O   0  0  0  0  0  0           0  0  0
    9.0417   -3.7375    0.0000 O   0  0  0  0  0  0           0  0  0
    8.3375   -1.6667    0.0000 O   0  0  0  0  0  0           0  0  0
    9.7625   -2.5000    0.0000 O   0  0  0  0  0  0           0  0  0
    3.3375   -2.9042    0.0000 C   0  0  0  0  0  0           0  0  0
    4.7625   -5.3750    0.0000 C   0  0  0  0  0  0           0  0  0
    2.6167   -2.4917    0.0000 C   0  0  0  0  0  0           0  0  0
    3.3417   -3.7250    0.0000 C   0  0  0  0  0  0           0  0  0
    4.0500   -4.9542    0.0000 C   0  0  0  0  0  0           0  0  0
    4.7667   -6.1917    0.0000 C   0  0  0  0  0  0           0  0  0
    2.6292   -4.1417    0.0000 C   0  0  0  0  0  0           0  0  0
    3.3292   -5.3667    0.0000 C   0  0  0  0  0  0           0  0  0
    4.0542   -6.6042    0.0000 C   0  0  0  0  0  0           0  0  0
    1.9042   -2.9042    0.0000 C   0  0  0  0  0  0           0  0  0
    1.9042   -3.7292    0.0000 C   0  0  0  0  0  0           0  0  0
    3.3292   -6.1917    0.0000 C   0  0  0  0  0  0           0  0  0
  2  4  1  0     0  0
  3  1  1  0     0  0
  4  1  1  0     0  0
  5  3  1  0     0  0
  6  2  2  0     0  0
  7  2  1  0     0  0
  8  7  1  0     0  0
  9  8  2  0     0  0
 10  9  1  0     0  0
 11  1  1  0     0  0
 12  5  1  0     0  0
 13  3  2  0     0  0
 14  4  2  0     0  0
 15  7  2  0     0  0
 16 10  2  0     0  0
 17  9  1  0     0  0
 18 10  1  0     0  0
 19 11  1  0     0  0
 20 12  1  0     0  0
 21 19  2  0     0  0
 22 19  1  0     0  0
 23 20  2  0     0  0
 24 20  1  0     0  0
 25 22  2  0     0  0
 26 23  1  0     0  0
 27 24  2  0     0  0
 28 21  1  0     0  0
 29 25  1  0     0  0
 30 27  1  0     0  0
  5  6  1  0     0  0
 28 29  2  0     0  0
 26 30  2  0     0  0
M  END
>  <prID>
876

>  <IDDB>
230859

>  <pIC50_HIV_Integrase>
6.698970004

>  <Q>
0.192628693

>  <Activity_Integrase>
Active_Integrase

NA
NA
NA
NA
$$$$

  Accelrys05311914302D 1   1.00000     0.00000     0

 30 31  0     0  0            999 V2000
    6.2439   -0.8708    0.0000 C   0  0  0  0  0  0           0  0  0
    6.2439   -1.6958    0.0000 C   0  0  0  0  0  0           0  0  0
    6.9559   -2.1042    0.0000 C   0  0  0  0  0  0           0  0  0
    7.6679   -1.6958    0.0000 O   0  0  0  0  0  0           0  0  0
    7.6679   -0.8708    0.0000 C   0  0  0  0  0  0           0  0  0
    6.9559   -0.4542    0.0000 C   0  0  0  0  0  0           0  0  0
    4.8199   -0.8708    0.0000 C   0  0  0  0  0  0           0  0  0
    4.8199   -1.6958    0.0000 C   0  0  1  0  0  0           0  0  0
    5.5319   -2.1042    0.0000 C   0  0  0  0  0  0           0  0  0
    5.5319   -0.4542    0.0000 C   0  0  2  0  0  0           0  0  0
    4.1074   -2.1042    0.0000 C   0  0  2  0  0  0           0  0  0
    4.1074   -2.9292    0.0000 C   0  0  1  0  0  0           0  0  0
    5.5527   -3.5583    0.0000 C   0  0  0  0  0  0           0  0  0
    5.5314   -2.9292    0.0000 O   0  0  0  0  0  0           0  0  0
    2.6833   -2.1042    0.0000 C   0  0  0  0  0  0           0  0  0
    2.6833   -2.9292    0.0000 C   0  0  1  0  0  0           0  0  0
    3.3954   -3.3375    0.0000 C   0  0  0  0  0  0           0  0  0
    3.3954   -1.6875    0.0000 C   0  0  1  0  0  0           0  0  0
    3.3958   -0.8708    0.0000 C   0  0  0  0  0  0           0  0  0
    4.1079   -0.4542    0.0000 C   0  0  0  0  0  0           0  0  0
    4.1000    0.3708    0.0000 O   0  0  0  0  0  0           0  0  0
    2.6792   -0.4583    0.0000 O   0  0  0  0  0  0           0  0  0
    4.1000   -1.2792    0.0000 H   0  0  0  0  0  0           0  0  0
    3.3875   -2.5125    0.0000 H   0  0  0  0  0  0           0  0  0
    1.9667   -3.3375    0.0000 C   0  0  0  0  0  0           0  0  0
    5.5250    0.3708    0.0000 C   0  0  0  0  0  0           0  0  0
    4.8333   -2.4625    0.0000 C   0  0  0  0  0  0           0  0  0
    6.3333   -3.2750    0.0000 O   0  0  0  0  0  0           0  0  0
    5.5500   -4.4917    0.0000 O   0  0  0  0  0  0           0  0  0
    8.3792   -0.4542    0.0000 C   0  0  0  0  0  0           0  0  0
  3  4  1  0     0  0
  7 10  1  0     0  0
  8  9  1  0     0  0
 15 18  1  0     0  0
 16 17  1  0     0  0
 17 12  1  0     0  0
 11 18  1  0     0  0
 19 18  1  0     0  0
  9  2  1  0     0  0
  1 10  1  0     0  0
 19 20  1  0     0  0
  7 20  2  0     0  0
 11 12  1  0     0  0
 20 21  1  0     0  0
  5  6  1  0     0  0
 19 22  2  0     0  0
  7  8  1  0     0  0
 11 23  1  1     0  0
 18 24  1  6     0  0
  1  6  1  0     0  0
 16 25  1  1     0  0
 11  8  1  0     0  0
 10 26  1  6     0  0
 12 13  1  1     0  0
  8 27  1  6     0  0
 14  9  2  0     0  0
 13 28  1  0     0  0
 15 16  1  0     0  0
 13 29  2  0     0  0
  2  3  1  0     0  0
  5 30  1  0     0  0
M  END
>  <prID>
877

>  <IDDB>
231382

>  <pIC50_HIV_Integrase>
4.698970004

>  <Q>
-5.805856072

>  <Activity_Integrase>
Inactive_Integrase

NA
NA
NA
NA
$$$$

  Accelrys05311914302D 1   1.00000     0.00000     0

 31 32  0     0  0            999 V2000
    6.2439   -0.8708    0.0000 C   0  0  0  0  0  0           0  0  0
    6.2439   -1.6958    0.0000 C   0  0  0  0  0  0           0  0  0
    6.9559   -2.1042    0.0000 C   0  0  0  0  0  0           0  0  0
    6.9888   -2.9625    0.0000 O   0  0  0  0  0  0           0  0  0
    7.6679   -0.8708    0.0000 C   0  0  0  0  0  0           0  0  0
    6.9559   -0.4542    0.0000 C   0  0  0  0  0  0           0  0  0
    4.8199   -0.8708    0.0000 C   0  0  0  0  0  0           0  0  0
    4.8199   -1.6958    0.0000 C   0  0  1  0  0  0           0  0  0
    5.5319   -2.1042    0.0000 C   0  0  0  0  0  0           0  0  0
    5.5319   -0.4542    0.0000 C   0  0  2  0  0  0           0  0  0
    4.1074   -2.1042    0.0000 C   0  0  2  0  0  0           0  0  0
    4.1074   -2.9292    0.0000 C   0  0  1  0  0  0           0  0  0
    4.8986   -3.4625    0.0000 O   0  0  0  0  0  0           0  0  0
    5.5314   -2.9292    0.0000 O   0  0  0  0  0  0           0  0  0
    2.6833   -2.1042    0.0000 C   0  0  2  0  0  0           0  0  0
    2.6833   -2.9292    0.0000 C   0  0  1  0  0  0           0  0  0
    3.3954   -3.3375    0.0000 C   0  0  0  0  0  0           0  0  0
    3.3954   -1.6875    0.0000 C   0  0  1  0  0  0           0  0  0
    3.3958   -0.8708    0.0000 C   0  0  0  0  0  0           0  0  0
    4.1079   -0.4542    0.0000 C   0  0  0  0  0  0           0  0  0
    4.1000    0.3708    0.0000 O   0  0  0  0  0  0           0  0  0
    2.6792   -0.4583    0.0000 O   0  0  0  0  0  0           0  0  0
    4.1000   -1.2792    0.0000 H   0  0  0  0  0  0           0  0  0
    3.3875   -2.5125    0.0000 H   0  0  0  0  0  0           0  0  0
    1.9667   -3.3375    0.0000 C   0  0  0  0  0  0           0  0  0
    5.5250    0.3708    0.0000 C   0  0  0  0  0  0           0  0  0
    4.8333   -2.4625    0.0000 C   0  0  0  0  0  0           0  0  0
    8.3792   -0.4542    0.0000 C   0  0  0  0  0  0           0  0  0
    1.9667   -1.6917    0.0000 O   0  0  0  0  0  0           0  0  0
    9.0917   -0.8667    0.0000 C   0  0  0  0  0  0           0  0  0
    9.8042   -0.4500    0.0000 C   0  0  0  0  0  0           0  0  0
  7 10  1  0     0  0
  8  9  1  0     0  0
 15 18  1  0     0  0
 16 17  1  0     0  0
 17 12  1  0     0  0
 11 18  1  0     0  0
 19 18  1  0     0  0
  9  2  1  0     0  0
  1 10  1  0     0  0
 19 20  1  0     0  0
  7 20  2  0     0  0
 11 12  1  0     0  0
 20 21  1  0     0  0
  5  6  1  0     0  0
 19 22  2  0     0  0
  7  8  1  0     0  0
 11 23  1  1     0  0
 18 24  1  6     0  0
  1  6  1  0     0  0
 16 25  1  1     0  0
 11  8  1  0     0  0
 10 26  1  6     0  0
 12 13  1  1     0  0
  8 27  1  6     0  0
 14  9  2  0     0  0
  5 28  1  0     0  0
 15 16  1  0     0  0
 15 29  1  1     0  0
  2  3  2  0     0  0
 28 30  1  0     0  0
  3  4  1  0     0  0
 30 31  1  0     0  0
M  END
>  <prID>
878

>  <IDDB>
231383

>  <pIC50_HIV_Integrase>
4.698970004

>  <Q>
-6.106426636

>  <Activity_Integrase>
Inactive_Integrase

NA
NA
NA
NA
$$$$

  Accelrys05311914302D 1   1.00000     0.00000     0

 26 28  0     0  0            999 V2000
    5.9929   -1.2172    0.0000 C   0  0  0  0  0  0           0  0  0
    5.9929   -2.0422    0.0000 C   0  0  0  0  0  0           0  0  0
    6.7050   -2.4505    0.0000 N   0  0  3  0  0  0           0  0  0
    7.4170   -2.0422    0.0000 C   0  0  0  0  0  0           0  0  0
    7.4170   -1.2172    0.0000 C   0  0  0  0  0  0           0  0  0
    6.7050   -0.8005    0.0000 C   0  0  0  0  0  0           0  0  0
    4.5657   -1.2208    0.0000 C   0  0  0  0  0  0           0  0  0
    4.5645   -2.0482    0.0000 C   0  0  0  0  0  0           0  0  0
    5.2794   -2.4611    0.0000 C   0  0  0  0  0  0           0  0  0
    5.2776   -0.8081    0.0000 C   0  0  0  0  0  0           0  0  0
    3.1417   -1.2208    0.0000 C   0  0  0  0  0  0           0  0  0
    3.1417   -2.0458    0.0000 C   0  0  0  0  0  0           0  0  0
    3.8537   -0.8042    0.0000 C   0  0  0  0  0  0           0  0  0
    1.7111   -1.2208    0.0000 C   0  0  0  0  0  0           0  0  0
    1.7099   -2.0482    0.0000 C   0  0  0  0  0  0           0  0  0
    2.4247   -2.4610    0.0000 C   0  0  0  0  0  0           0  0  0
    2.4229   -0.8080    0.0000 C   0  0  0  0  0  0           0  0  0
    2.4167    0.0208    0.0000 Cl  0  0  0  0  0  0           0  0  0
    0.9917   -0.8042    0.0000 Cl  0  0  0  0  0  0           0  0  0
    6.7000    0.0250    0.0000 O   0  0  0  0  0  0           0  0  0
    6.7000   -3.2750    0.0000 C   0  0  0  0  0  0           0  0  0
    7.4125   -3.6875    0.0000 C   0  0  0  0  0  0           0  0  0
    8.1250   -3.2708    0.0000 O   0  0  0  0  0  0           0  0  0
    8.1292   -0.8000    0.0000 C   0  0  0  0  0  0           0  0  0
    8.8417   -1.2125    0.0000 O   0  0  0  0  0  0           0  0  0
    8.1250    0.0250    0.0000 O   0  0  0  0  0  0           0  0  0
 11 13  1  0     0  0
  7 13  1  0     0  0
  1  2  1  0     0  0
 14 15  2  0     0  0
  7  8  2  0     0  0
 15 16  1  0     0  0
 16 12  2  0     0  0
  1  6  1  0     0  0
 11 17  2  0     0  0
 17 14  1  0     0  0
  8  9  1  0     0  0
 17 18  1  0     0  0
  9  2  2  0     0  0
 14 19  1  0     0  0
  2  3  1  0     0  0
  6 20  2  0     0  0
  1 10  2  0     0  0
  3 21  1  0     0  0
 10  7  1  0     0  0
 21 22  1  0     0  0
 11 12  1  0     0  0
 22 23  1  0     0  0
  3  4  1  0     0  0
  5 24  1  0     0  0
  4  5  2  0     0  0
 24 25  1  0     0  0
  5  6  1  0     0  0
 24 26  2  0     0  0
M  END
>  <prID>
879

>  <IDDB>
241598

>  <pIC50_HIV_Integrase>
7.677780705

>  <Q>
-2.277345279

>  <Activity_Integrase>
Active_Integrase

NA
NA
NA
NA
$$$$

  Accelrys05311914302D 1   1.00000     0.00000     0

 27 29  0     0  0            999 V2000
    5.9929   -1.2172    0.0000 C   0  0  0  0  0  0           0  0  0
    5.9929   -2.0422    0.0000 C   0  0  0  0  0  0           0  0  0
    6.7050   -2.4505    0.0000 N   0  0  3  0  0  0           0  0  0
    7.4170   -2.0422    0.0000 C   0  0  0  0  0  0           0  0  0
    7.4170   -1.2172    0.0000 C   0  0  0  0  0  0           0  0  0
    6.7050   -0.8005    0.0000 C   0  0  0  0  0  0           0  0  0
    4.5657   -1.2208    0.0000 C   0  0  0  0  0  0           0  0  0
    4.5645   -2.0482    0.0000 C   0  0  0  0  0  0           0  0  0
    5.2794   -2.4611    0.0000 C   0  0  0  0  0  0           0  0  0
    5.2776   -0.8081    0.0000 C   0  0  0  0  0  0           0  0  0
    3.1417   -1.2208    0.0000 C   0  0  0  0  0  0           0  0  0
    3.1417   -2.0458    0.0000 C   0  0  0  0  0  0           0  0  0
    3.8537   -0.8042    0.0000 C   0  0  0  0  0  0           0  0  0
    1.7111   -1.2208    0.0000 C   0  0  0  0  0  0           0  0  0
    1.7099   -2.0482    0.0000 C   0  0  0  0  0  0           0  0  0
    2.4247   -2.4610    0.0000 C   0  0  0  0  0  0           0  0  0
    2.4229   -0.8080    0.0000 C   0  0  0  0  0  0           0  0  0
    2.4167    0.0208    0.0000 Cl  0  0  0  0  0  0           0  0  0
    0.9917   -0.8042    0.0000 Cl  0  0  0  0  0  0           0  0  0
    6.7000    0.0250    0.0000 O   0  0  0  0  0  0           0  0  0
    6.7000   -3.2750    0.0000 C   0  0  0  0  0  0           0  0  0
    7.4125   -3.6875    0.0000 C   0  0  0  0  0  0           0  0  0
    8.1250   -3.2708    0.0000 O   0  0  0  0  0  0           0  0  0
    8.1292   -0.8000    0.0000 C   0  0  0  0  0  0           0  0  0
    8.8417   -1.2125    0.0000 O   0  0  0  0  0  0           0  0  0
    8.1250    0.0250    0.0000 O   0  0  0  0  0  0           0  0  0
    5.2750   -3.2833    0.0000 F   0  0  0  0  0  0           0  0  0
  7 13  1  0     0  0
  1  2  1  0     0  0
 14 15  2  0     0  0
  7  8  2  0     0  0
 15 16  1  0     0  0
 16 12  2  0     0  0
  1  6  1  0     0  0
 11 17  2  0     0  0
 17 14  1  0     0  0
  8  9  1  0     0  0
 17 18  1  0     0  0
  9  2  2  0     0  0
 14 19  1  0     0  0
  2  3  1  0     0  0
  6 20  2  0     0  0
  1 10  2  0     0  0
  3 21  1  0     0  0
 10  7  1  0     0  0
 21 22  1  0     0  0
 11 12  1  0     0  0
 22 23  1  0     0  0
  3  4  1  0     0  0
  5 24  1  0     0  0
  4  5  2  0     0  0
 24 25  1  0     0  0
  5  6  1  0     0  0
 24 26  2  0     0  0
 11 13  1  0     0  0
  9 27  1  0     0  0
M  END
>  <prID>
880

>  <IDDB>
241599

>  <pIC50_HIV_Integrase>
7.468521083

>  <Q>
-4.707737629

>  <Activity_Integrase>
Active_Integrase

NA
NA
NA
NA
$$$$

  Accelrys05311914302D 1   1.00000     0.00000     0

 24 26  0     0  0            999 V2000
    5.9417   -8.1000    0.0000 C   0  0  0  0  0  0           0  0  0
    5.9466   -7.2755    0.0000 N   0  0  3  0  0  0           0  0  0
    8.0833   -6.0375    0.0000 O   0  0  0  0  0  0           0  0  0
    0.9527   -6.0458    0.0000 C   0  0  0  0  0  0           0  0  0
    1.6692   -5.6324    0.0000 C   0  0  0  0  0  0           0  0  0
    5.2346   -6.0422    0.0000 C   0  0  0  0  0  0           0  0  0
    5.2346   -6.8672    0.0000 C   0  0  0  0  0  0           0  0  0
    6.6587   -6.8672    0.0000 C   0  0  0  0  0  0           0  0  0
    6.6587   -6.0422    0.0000 C   0  0  0  0  0  0           0  0  0
    5.9466   -5.6255    0.0000 C   0  0  0  0  0  0           0  0  0
    3.8074   -6.0458    0.0000 C   0  0  0  0  0  0           0  0  0
    3.8062   -6.8732    0.0000 C   0  0  0  0  0  0           0  0  0
    4.5210   -7.2861    0.0000 C   0  0  0  0  0  0           0  0  0
    4.5192   -5.6331    0.0000 C   0  0  0  0  0  0           0  0  0
    2.3833   -6.0458    0.0000 C   0  0  0  0  0  0           0  0  0
    2.3833   -6.8708    0.0000 C   0  0  0  0  0  0           0  0  0
    3.0954   -5.6292    0.0000 C   0  0  0  0  0  0           0  0  0
    0.9516   -6.8732    0.0000 C   0  0  0  0  0  0           0  0  0
    1.6664   -7.2860    0.0000 C   0  0  0  0  0  0           0  0  0
    5.9417   -4.8000    0.0000 O   0  0  0  0  0  0           0  0  0
    7.3708   -5.6250    0.0000 C   0  0  0  0  0  0           0  0  0
    7.3667   -4.8000    0.0000 O   0  0  0  0  0  0           0  0  0
    6.6542   -8.5125    0.0000 C   0  0  0  0  0  0           0  0  0
    7.3667   -8.0958    0.0000 O   0  0  0  0  0  0           0  0  0
 13  7  2  0     0  0
  2  1  1  0     0  0
  6 14  2  0     0  0
 14 11  1  0     0  0
 15 16  1  0     0  0
  6 10  1  0     0  0
  7  2  1  0     0  0
  2  8  1  0     0  0
 15 17  1  0     0  0
 11 17  1  0     0  0
  8  9  2  0     0  0
  4 18  2  0     0  0
  9 10  1  0     0  0
 18 19  1  0     0  0
 19 16  2  0     0  0
 15  5  2  0     0  0
 10 20  2  0     0  0
  4  5  1  0     0  0
  9 21  1  0     0  0
 21  3  1  0     0  0
 11 12  2  0     0  0
 21 22  2  0     0  0
  6  7  1  0     0  0
  1 23  1  0     0  0
 12 13  1  0     0  0
 23 24  1  0     0  0
M  END
>  <prID>
881

>  <IDDB>
241602

>  <pIC50_HIV_Integrase>
5.508638306

>  <Q>
-0.449188377

>  <Activity_Integrase>
Inactive_Integrase

NA
NA
NA
NA
$$$$

  Accelrys05311914302D 1   1.00000     0.00000     0

 27 29  0     0  0            999 V2000
    8.1251   -3.2727    0.0000 N   0  0  0  0  0  0           0  0  0
    5.9929   -1.2172    0.0000 C   0  0  0  0  0  0           0  0  0
    5.9929   -2.0422    0.0000 C   0  0  0  0  0  0           0  0  0
    6.7050   -2.4505    0.0000 N   0  0  3  0  0  0           0  0  0
    7.4170   -2.0422    0.0000 C   0  0  0  0  0  0           0  0  0
    7.4170   -1.2172    0.0000 C   0  0  0  0  0  0           0  0  0
    6.7050   -0.8005    0.0000 C   0  0  0  0  0  0           0  0  0
    4.5657   -1.2208    0.0000 C   0  0  0  0  0  0           0  0  0
    4.5645   -2.0482    0.0000 C   0  0  0  0  0  0           0  0  0
    5.2794   -2.4611    0.0000 C   0  0  0  0  0  0           0  0  0
    5.2776   -0.8081    0.0000 C   0  0  0  0  0  0           0  0  0
    3.1417   -1.2208    0.0000 C   0  0  0  0  0  0           0  0  0
    3.1417   -2.0458    0.0000 C   0  0  0  0  0  0           0  0  0
    3.8537   -0.8042    0.0000 C   0  0  0  0  0  0           0  0  0
    1.7111   -1.2208    0.0000 C   0  0  0  0  0  0           0  0  0
    1.7099   -2.0482    0.0000 C   0  0  0  0  0  0           0  0  0
    2.4247   -2.4610    0.0000 C   0  0  0  0  0  0           0  0  0
    2.4229   -0.8080    0.0000 C   0  0  0  0  0  0           0  0  0
    2.4167    0.0208    0.0000 Cl  0  0  0  0  0  0           0  0  0
    0.9917   -0.8042    0.0000 Cl  0  0  0  0  0  0           0  0  0
    6.7000    0.0250    0.0000 O   0  0  0  0  0  0           0  0  0
    6.7000   -3.2750    0.0000 C   0  0  0  0  0  0           0  0  0
    7.4125   -3.6875    0.0000 C   0  0  0  0  0  0           0  0  0
    8.1292   -0.8000    0.0000 C   0  0  0  0  0  0           0  0  0
    8.8417   -1.2125    0.0000 O   0  0  0  0  0  0           0  0  0
    8.1250    0.0250    0.0000 O   0  0  0  0  0  0           0  0  0
    7.4083   -4.5125    0.0000 O   0  0  0  0  0  0           0  0  0
 12 14  1  0     0  0
  8 14  1  0     0  0
  2  3  1  0     0  0
 15 16  2  0     0  0
  8  9  2  0     0  0
 16 17  1  0     0  0
 17 13  2  0     0  0
  2  7  1  0     0  0
 12 18  2  0     0  0
 18 15  1  0     0  0
  9 10  1  0     0  0
 18 19  1  0     0  0
 10  3  2  0     0  0
 15 20  1  0     0  0
  3  4  1  0     0  0
  7 21  2  0     0  0
  2 11  2  0     0  0
  4 22  1  0     0  0
 11  8  1  0     0  0
 22 23  1  0     0  0
 23  1  1  0     0  0
 12 13  1  0     0  0
  6 24  1  0     0  0
  4  5  1  0     0  0
 24 25  1  0     0  0
  5  6  2  0     0  0
 24 26  2  0     0  0
  6  7  1  0     0  0
 23 27  2  0     0  0
M  END
>  <prID>
882

>  <IDDB>
241604

>  <pIC50_HIV_Integrase>
7.455931956

>  <Q>
-2.93343074

>  <Activity_Integrase>
Active_Integrase

NA
NA
NA
NA
$$$$

  Accelrys05311914302D 1   1.00000     0.00000     0

 26 28  0     0  0            999 V2000
    5.9929   -1.2172    0.0000 C   0  0  0  0  0  0           0  0  0
    5.9929   -2.0422    0.0000 C   0  0  0  0  0  0           0  0  0
    6.7050   -2.4505    0.0000 N   0  0  3  0  0  0           0  0  0
    7.4170   -2.0422    0.0000 C   0  0  0  0  0  0           0  0  0
    7.4170   -1.2172    0.0000 C   0  0  0  0  0  0           0  0  0
    6.7050   -0.8005    0.0000 C   0  0  0  0  0  0           0  0  0
    4.5657   -1.2208    0.0000 C   0  0  0  0  0  0           0  0  0
    4.5645   -2.0482    0.0000 C   0  0  0  0  0  0           0  0  0
    5.2794   -2.4611    0.0000 C   0  0  0  0  0  0           0  0  0
    5.2776   -0.8081    0.0000 C   0  0  0  0  0  0           0  0  0
    3.1417   -1.2208    0.0000 C   0  0  0  0  0  0           0  0  0
    3.1417   -2.0458    0.0000 C   0  0  0  0  0  0           0  0  0
    3.8537   -0.8042    0.0000 C   0  0  0  0  0  0           0  0  0
    1.7111   -1.2208    0.0000 C   0  0  0  0  0  0           0  0  0
    1.7099   -2.0482    0.0000 C   0  0  0  0  0  0           0  0  0
    2.4247   -2.4610    0.0000 C   0  0  0  0  0  0           0  0  0
    2.4229   -0.8080    0.0000 C   0  0  0  0  0  0           0  0  0
    2.4167    0.0208    0.0000 Cl  0  0  0  0  0  0           0  0  0
    0.9917   -0.8042    0.0000 Cl  0  0  0  0  0  0           0  0  0
    6.7000    0.0250    0.0000 O   0  0  0  0  0  0           0  0  0
    6.7000   -3.2750    0.0000 C   0  0  3  0  0  0           0  0  0
    7.4125   -3.6875    0.0000 C   0  0  0  0  0  0           0  0  0
    8.1292   -0.8000    0.0000 C   0  0  0  0  0  0           0  0  0
    8.8417   -1.2125    0.0000 O   0  0  0  0  0  0           0  0  0
    8.1250    0.0250    0.0000 O   0  0  0  0  0  0           0  0  0
    5.9833   -3.6833    0.0000 C   0  0  0  0  0  0           0  0  0
 11 13  1  0     0  0
  7 13  1  0     0  0
  1  2  1  0     0  0
 14 15  2  0     0  0
  7  8  2  0     0  0
 15 16  1  0     0  0
 16 12  2  0     0  0
  1  6  1  0     0  0
 11 17  2  0     0  0
 17 14  1  0     0  0
  8  9  1  0     0  0
 17 18  1  0     0  0
  9  2  2  0     0  0
 14 19  1  0     0  0
  2  3  1  0     0  0
  6 20  2  0     0  0
  1 10  2  0     0  0
  3 21  1  0     0  0
 10  7  1  0     0  0
 21 22  1  0     0  0
 11 12  1  0     0  0
  5 23  1  0     0  0
  3  4  1  0     0  0
 23 24  1  0     0  0
  4  5  2  0     0  0
 23 25  2  0     0  0
  5  6  1  0     0  0
 21 26  1  0     0  0
M  END
>  <prID>
883

>  <IDDB>
241605

>  <pIC50_HIV_Integrase>
7.585026652

>  <Q>
-1.940605167

>  <Activity_Integrase>
Active_Integrase

NA
NA
NA
NA
$$$$

  Accelrys05311914302D 1   1.00000     0.00000     0

 28 30  0     0  0            999 V2000
    5.9929   -1.2172    0.0000 C   0  0  0  0  0  0           0  0  0
    5.9929   -2.0422    0.0000 C   0  0  0  0  0  0           0  0  0
    6.7050   -2.4505    0.0000 N   0  0  3  0  0  0           0  0  0
    7.4170   -2.0422    0.0000 C   0  0  0  0  0  0           0  0  0
    7.4170   -1.2172    0.0000 C   0  0  0  0  0  0           0  0  0
    6.7050   -0.8005    0.0000 C   0  0  0  0  0  0           0  0  0
    4.5657   -1.2208    0.0000 C   0  0  0  0  0  0           0  0  0
    4.5645   -2.0482    0.0000 C   0  0  0  0  0  0           0  0  0
    5.2794   -2.4611    0.0000 C   0  0  0  0  0  0           0  0  0
    5.2776   -0.8081    0.0000 C   0  0  0  0  0  0           0  0  0
    3.1417   -1.2208    0.0000 C   0  0  0  0  0  0           0  0  0
    3.1417   -2.0458    0.0000 C   0  0  0  0  0  0           0  0  0
    3.8537   -0.8042    0.0000 C   0  0  0  0  0  0           0  0  0
    1.7111   -1.2208    0.0000 C   0  0  0  0  0  0           0  0  0
    1.7099   -2.0482    0.0000 C   0  0  0  0  0  0           0  0  0
    2.4247   -2.4610    0.0000 C   0  0  0  0  0  0           0  0  0
    2.4229   -0.8080    0.0000 C   0  0  0  0  0  0           0  0  0
    2.4167    0.0208    0.0000 Cl  0  0  0  0  0  0           0  0  0
    0.9917   -0.8042    0.0000 Cl  0  0  0  0  0  0           0  0  0
    6.7000    0.0250    0.0000 O   0  0  0  0  0  0           0  0  0
    6.7000   -3.2750    0.0000 C   0  0  0  0  0  0           0  0  0
    8.1292   -0.8000    0.0000 C   0  0  0  0  0  0           0  0  0
    8.8417   -1.2125    0.0000 O   0  0  0  0  0  0           0  0  0
    8.1250    0.0250    0.0000 O   0  0  0  0  0  0           0  0  0
    7.4125   -3.6875    0.0000 C   0  0  0  0  0  0           0  0  0
    8.1250   -3.2708    0.0000 C   0  0  0  0  0  0           0  0  0
    8.8375   -3.6833    0.0000 O   0  0  0  0  0  0           0  0  0
    8.1208   -2.4458    0.0000 O   0  0  0  0  0  0           0  0  0
  1  2  1  0     0  0
 14 15  2  0     0  0
  7  8  2  0     0  0
 15 16  1  0     0  0
 16 12  2  0     0  0
  1  6  1  0     0  0
 11 17  2  0     0  0
 17 14  1  0     0  0
  8  9  1  0     0  0
 17 18  1  0     0  0
  9  2  2  0     0  0
 14 19  1  0     0  0
  2  3  1  0     0  0
  6 20  2  0     0  0
  1 10  2  0     0  0
  3 21  1  0     0  0
 10  7  1  0     0  0
  5 22  1  0     0  0
 11 12  1  0     0  0
 22 23  1  0     0  0
  3  4  1  0     0  0
 22 24  2  0     0  0
  4  5  2  0     0  0
 21 25  1  0     0  0
  5  6  1  0     0  0
 25 26  1  0     0  0
 11 13  1  0     0  0
 26 27  1  0     0  0
  7 13  1  0     0  0
 26 28  2  0     0  0
M  END
>  <prID>
884

>  <IDDB>
241607

>  <pIC50_HIV_Integrase>
7.420216403

>  <Q>
-2.614985561

>  <Activity_Integrase>
Active_Integrase

NA
NA
NA
NA
$$$$

  Accelrys05311914302D 1   1.00000     0.00000     0

 28 30  0     0  0            999 V2000
    0.3671   -1.4913    0.0000 Cl  0  0  0  0  0  0           0  0  0
    1.0819   -1.9041    0.0000 C   0  0  0  0  0  0           0  0  0
    1.7983   -1.4908    0.0000 C   0  0  0  0  0  0           0  0  0
    1.7955   -0.6603    0.0000 Cl  0  0  0  0  0  0           0  0  0
    5.3638   -1.9005    0.0000 C   0  0  0  0  0  0           0  0  0
    5.3638   -2.7255    0.0000 C   0  0  0  0  0  0           0  0  0
    6.0758   -3.1339    0.0000 N   0  0  3  0  0  0           0  0  0
    6.7878   -2.7255    0.0000 C   0  0  0  0  0  0           0  0  0
    6.7878   -1.9005    0.0000 C   0  0  0  0  0  0           0  0  0
    6.0758   -1.4839    0.0000 C   0  0  0  0  0  0           0  0  0
    3.9365   -1.9042    0.0000 C   0  0  0  0  0  0           0  0  0
    3.9354   -2.7315    0.0000 C   0  0  0  0  0  0           0  0  0
    4.6502   -3.1444    0.0000 C   0  0  0  0  0  0           0  0  0
    4.6484   -1.4914    0.0000 C   0  0  0  0  0  0           0  0  0
    2.5125   -1.9042    0.0000 C   0  0  0  0  0  0           0  0  0
    2.5125   -2.7292    0.0000 C   0  0  0  0  0  0           0  0  0
    3.2245   -1.4875    0.0000 C   0  0  0  0  0  0           0  0  0
    1.0807   -2.7315    0.0000 C   0  0  0  0  0  0           0  0  0
    1.7956   -3.1444    0.0000 C   0  0  0  0  0  0           0  0  0
    6.0708   -0.6583    0.0000 O   0  0  0  0  0  0           0  0  0
    6.0708   -3.9583    0.0000 C   0  0  0  0  0  0           0  0  0
    7.5000   -1.4833    0.0000 C   0  0  0  0  0  0           0  0  0
    8.2125   -1.8958    0.0000 O   0  0  0  0  0  0           0  0  0
    7.4958   -0.6583    0.0000 O   0  0  0  0  0  0           0  0  0
    6.7833   -4.3708    0.0000 C   0  0  0  0  0  0           0  0  0
    7.4958   -3.9542    0.0000 C   0  0  0  0  0  0           0  0  0
    8.2083   -4.3667    0.0000 N   0  0  0  0  0  0           0  0  0
    7.4917   -3.1292    0.0000 O   0  0  0  0  0  0           0  0  0
 14 11  1  0     0  0
 15 16  1  0     0  0
  5 10  1  0     0  0
  6  7  1  0     0  0
 15 17  1  0     0  0
 11 17  1  0     0  0
  7  8  1  0     0  0
  2 18  2  0     0  0
  8  9  2  0     0  0
 18 19  1  0     0  0
 19 16  2  0     0  0
 15  3  2  0     0  0
  9 10  1  0     0  0
 10 20  2  0     0  0
  2  3  1  0     0  0
  7 21  1  0     0  0
  1  2  1  0     0  0
  9 22  1  0     0  0
 11 12  2  0     0  0
 22 23  1  0     0  0
  3  4  1  0     0  0
 22 24  2  0     0  0
 12 13  1  0     0  0
 21 25  1  0     0  0
 13  6  2  0     0  0
 25 26  1  0     0  0
  5  6  1  0     0  0
 26 27  1  0     0  0
  5 14  2  0     0  0
 26 28  2  0     0  0
M  END
>  <prID>
885

>  <IDDB>
241610

>  <pIC50_HIV_Integrase>
6.935542011

>  <Q>
-3.213299048

>  <Activity_Integrase>
Active_Integrase

NA
NA
NA
NA
$$$$

  Accelrys05311914302D 1   1.00000     0.00000     0

 27 29  0     0  0            999 V2000
    9.6822   -8.5744    0.0000 O   0  0  0  0  0  0           0  0  0
    8.9514   -8.1798    0.0000 C   0  0  0  0  0  0           0  0  0
    8.2500   -8.6125    0.0000 C   0  0  0  0  0  0           0  0  0
    7.5375   -8.2000    0.0000 C   0  0  0  0  0  0           0  0  0
    1.8338   -5.7329    0.0000 Cl  0  0  0  0  0  0           0  0  0
    2.5486   -6.1458    0.0000 C   0  0  0  0  0  0           0  0  0
    3.2650   -5.7324    0.0000 C   0  0  0  0  0  0           0  0  0
    3.2622   -4.9019    0.0000 Cl  0  0  0  0  0  0           0  0  0
    6.8304   -6.1422    0.0000 C   0  0  0  0  0  0           0  0  0
    6.8304   -6.9672    0.0000 C   0  0  0  0  0  0           0  0  0
    7.5425   -7.3755    0.0000 N   0  0  3  0  0  0           0  0  0
    8.2545   -6.9672    0.0000 C   0  0  0  0  0  0           0  0  0
    8.2545   -6.1422    0.0000 C   0  0  0  0  0  0           0  0  0
    7.5425   -5.7255    0.0000 C   0  0  0  0  0  0           0  0  0
    5.4032   -6.1458    0.0000 C   0  0  0  0  0  0           0  0  0
    5.4020   -6.9732    0.0000 C   0  0  0  0  0  0           0  0  0
    6.1169   -7.3861    0.0000 C   0  0  0  0  0  0           0  0  0
    6.1151   -5.7331    0.0000 C   0  0  0  0  0  0           0  0  0
    3.9792   -6.1458    0.0000 C   0  0  0  0  0  0           0  0  0
    3.9792   -6.9708    0.0000 C   0  0  0  0  0  0           0  0  0
    4.6912   -5.7292    0.0000 C   0  0  0  0  0  0           0  0  0
    2.5474   -6.9732    0.0000 C   0  0  0  0  0  0           0  0  0
    3.2622   -7.3860    0.0000 C   0  0  0  0  0  0           0  0  0
    7.5375   -4.9000    0.0000 O   0  0  0  0  0  0           0  0  0
    8.9667   -5.7250    0.0000 C   0  0  0  0  0  0           0  0  0
    9.6792   -6.1375    0.0000 O   0  0  0  0  0  0           0  0  0
    8.9625   -4.9000    0.0000 O   0  0  0  0  0  0           0  0  0
  7  8  1  0     0  0
  9 10  1  0     0  0
 15 16  2  0     0  0
 16 17  1  0     0  0
 17 10  2  0     0  0
  2  3  1  0     0  0
  9 18  2  0     0  0
 18 15  1  0     0  0
 19 20  1  0     0  0
  5  6  1  0     0  0
  1  2  1  0     0  0
  6  7  1  0     0  0
 19 21  1  0     0  0
 15 21  1  0     0  0
  4  3  1  0     0  0
  6 22  2  0     0  0
  9 14  1  0     0  0
 22 23  1  0     0  0
 23 20  2  0     0  0
 19  7  2  0     0  0
 10 11  1  0     0  0
 14 24  2  0     0  0
 11 12  1  0     0  0
 13 25  1  0     0  0
 12 13  2  0     0  0
 25 26  1  0     0  0
 13 14  1  0     0  0
 25 27  2  0     0  0
 11  4  1  0     0  0
M  END
>  <prID>
886

>  <IDDB>
241622

>  <pIC50_HIV_Integrase>
7.113509275

>  <Q>
-2.524078038

>  <Activity_Integrase>
Active_Integrase

NA
NA
NA
NA
$$$$

  Accelrys05311914302D 1   1.00000     0.00000     0

 27 29  0     0  0            999 V2000
    8.2500   -8.6125    0.0000 C   0  0  0  0  0  0           0  0  0
    7.5375   -8.2000    0.0000 C   0  0  0  0  0  0           0  0  0
    1.8338   -5.7329    0.0000 Cl  0  0  0  0  0  0           0  0  0
    2.5486   -6.1458    0.0000 C   0  0  0  0  0  0           0  0  0
    3.2650   -5.7324    0.0000 C   0  0  0  0  0  0           0  0  0
    3.2622   -4.9019    0.0000 Cl  0  0  0  0  0  0           0  0  0
    6.8304   -6.1422    0.0000 C   0  0  0  0  0  0           0  0  0
    6.8304   -6.9672    0.0000 C   0  0  0  0  0  0           0  0  0
    7.5425   -7.3755    0.0000 N   0  0  3  0  0  0           0  0  0
    8.2545   -6.9672    0.0000 C   0  0  0  0  0  0           0  0  0
    8.2545   -6.1422    0.0000 C   0  0  0  0  0  0           0  0  0
    7.5425   -5.7255    0.0000 C   0  0  0  0  0  0           0  0  0
    5.4032   -6.1458    0.0000 C   0  0  0  0  0  0           0  0  0
    5.4020   -6.9732    0.0000 C   0  0  0  0  0  0           0  0  0
    6.1169   -7.3861    0.0000 C   0  0  0  0  0  0           0  0  0
    6.1151   -5.7331    0.0000 C   0  0  0  0  0  0           0  0  0
    3.9792   -6.1458    0.0000 C   0  0  0  0  0  0           0  0  0
    3.9792   -6.9708    0.0000 C   0  0  0  0  0  0           0  0  0
    4.6912   -5.7292    0.0000 C   0  0  0  0  0  0           0  0  0
    2.5474   -6.9732    0.0000 C   0  0  0  0  0  0           0  0  0
    3.2622   -7.3860    0.0000 C   0  0  0  0  0  0           0  0  0
    7.5375   -4.9000    0.0000 O   0  0  0  0  0  0           0  0  0
    8.9667   -5.7250    0.0000 C   0  0  0  0  0  0           0  0  0
    9.6792   -6.1375    0.0000 O   0  0  0  0  0  0           0  0  0
    8.9625   -4.9000    0.0000 O   0  0  0  0  0  0           0  0  0
    8.2458   -9.4375    0.0000 O   0  0  0  0  0  0           0  0  0
    8.9625   -8.1958    0.0000 O   0  0  0  0  0  0           0  0  0
 14 15  1  0     0  0
 15  8  2  0     0  0
  2  1  1  0     0  0
  7 16  2  0     0  0
 16 13  1  0     0  0
 17 18  1  0     0  0
  5  6  1  0     0  0
  7  8  1  0     0  0
  7 12  1  0     0  0
 17 19  1  0     0  0
 13 19  1  0     0  0
  8  9  1  0     0  0
  4 20  2  0     0  0
  9 10  1  0     0  0
 20 21  1  0     0  0
 21 18  2  0     0  0
 17  5  2  0     0  0
 10 11  2  0     0  0
 12 22  2  0     0  0
 11 12  1  0     0  0
 11 23  1  0     0  0
  3  4  1  0     0  0
 23 24  1  0     0  0
 23 25  2  0     0  0
  9  2  1  0     0  0
 13 14  2  0     0  0
  1 26  2  0     0  0
  4  5  1  0     0  0
  1 27  1  0     0  0
M  END
>  <prID>
887

>  <IDDB>
241625

>  <pIC50_HIV_Integrase>
7.494850022

>  <Q>
-2.330789003

>  <Activity_Integrase>
Active_Integrase

NA
NA
NA
NA
$$$$

  Accelrys05311914302D 1   1.00000     0.00000     0

 24 26  0     0  0            999 V2000
    5.9417   -8.1000    0.0000 C   0  0  0  0  0  0           0  0  0
    0.9527   -6.0458    0.0000 C   0  0  0  0  0  0           0  0  0
    1.6692   -5.6324    0.0000 C   0  0  0  0  0  0           0  0  0
    5.2346   -6.0422    0.0000 C   0  0  0  0  0  0           0  0  0
    5.2346   -6.8672    0.0000 C   0  0  0  0  0  0           0  0  0
    5.9466   -7.2755    0.0000 N   0  0  3  0  0  0           0  0  0
    6.6587   -6.8672    0.0000 C   0  0  0  0  0  0           0  0  0
    6.6587   -6.0422    0.0000 C   0  0  0  0  0  0           0  0  0
    5.9466   -5.6255    0.0000 C   0  0  0  0  0  0           0  0  0
    3.8074   -6.0458    0.0000 C   0  0  0  0  0  0           0  0  0
    3.8062   -6.8732    0.0000 C   0  0  0  0  0  0           0  0  0
    4.5210   -7.2861    0.0000 C   0  0  0  0  0  0           0  0  0
    4.5192   -5.6331    0.0000 C   0  0  0  0  0  0           0  0  0
    2.3833   -6.0458    0.0000 C   0  0  0  0  0  0           0  0  0
    2.3833   -6.8708    0.0000 C   0  0  0  0  0  0           0  0  0
    3.0954   -5.6292    0.0000 C   0  0  0  0  0  0           0  0  0
    0.9516   -6.8732    0.0000 C   0  0  0  0  0  0           0  0  0
    1.6664   -7.2860    0.0000 C   0  0  0  0  0  0           0  0  0
    5.9417   -4.8000    0.0000 O   0  0  0  0  0  0           0  0  0
    7.3708   -5.6250    0.0000 C   0  0  0  0  0  0           0  0  0
    8.0833   -6.0375    0.0000 O   0  0  0  0  0  0           0  0  0
    7.3667   -4.8000    0.0000 O   0  0  0  0  0  0           0  0  0
    1.6625   -4.8042    0.0000 Cl  0  0  0  0  0  0           0  0  0
    0.2333   -5.6292    0.0000 Cl  0  0  0  0  0  0           0  0  0
  4 13  2  0     0  0
 13 10  1  0     0  0
 14 15  1  0     0  0
  5  6  1  0     0  0
  6  7  1  0     0  0
  7  8  2  0     0  0
 14 16  1  0     0  0
 10 16  1  0     0  0
  8  9  1  0     0  0
  2 17  2  0     0  0
 17 18  1  0     0  0
 18 15  2  0     0  0
 14  3  2  0     0  0
  2  3  1  0     0  0
  9 19  2  0     0  0
 10 11  2  0     0  0
  8 20  1  0     0  0
  4  5  1  0     0  0
 20 21  1  0     0  0
 11 12  1  0     0  0
 20 22  2  0     0  0
  6  1  1  0     0  0
 12  5  2  0     0  0
  3 23  1  0     0  0
  4  9  1  0     0  0
  2 24  1  0     0  0
M  END
>  <prID>
888

>  <IDDB>
241633

>  <pIC50_HIV_Integrase>
7.080921908

>  <Q>
-1.01587819

>  <Activity_Integrase>
Active_Integrase

NA
NA
NA
NA
$$$$

  Accelrys05311914302D 1   1.00000     0.00000     0

 25 27  0     0  0            999 V2000
    5.9417   -8.1000    0.0000 C   0  0  0  0  0  0           0  0  0
    0.9527   -6.0458    0.0000 C   0  0  0  0  0  0           0  0  0
    1.6692   -5.6324    0.0000 C   0  0  0  0  0  0           0  0  0
    5.2346   -6.0422    0.0000 C   0  0  0  0  0  0           0  0  0
    5.2346   -6.8672    0.0000 C   0  0  0  0  0  0           0  0  0
    5.9466   -7.2755    0.0000 N   0  0  3  0  0  0           0  0  0
    6.6587   -6.8672    0.0000 C   0  0  0  0  0  0           0  0  0
    6.6587   -6.0422    0.0000 C   0  0  0  0  0  0           0  0  0
    5.9466   -5.6255    0.0000 C   0  0  0  0  0  0           0  0  0
    3.8074   -6.0458    0.0000 C   0  0  0  0  0  0           0  0  0
    3.8062   -6.8732    0.0000 C   0  0  0  0  0  0           0  0  0
    4.5210   -7.2861    0.0000 C   0  0  0  0  0  0           0  0  0
    4.5192   -5.6331    0.0000 C   0  0  0  0  0  0           0  0  0
    2.3833   -6.0458    0.0000 C   0  0  0  0  0  0           0  0  0
    2.3833   -6.8708    0.0000 C   0  0  0  0  0  0           0  0  0
    3.0954   -5.6292    0.0000 C   0  0  0  0  0  0           0  0  0
    0.9516   -6.8732    0.0000 C   0  0  0  0  0  0           0  0  0
    1.6664   -7.2860    0.0000 C   0  0  0  0  0  0           0  0  0
    5.9417   -4.8000    0.0000 O   0  0  0  0  0  0           0  0  0
    7.3708   -5.6250    0.0000 C   0  0  0  0  0  0           0  0  0
    8.0833   -6.0375    0.0000 O   0  0  0  0  0  0           0  0  0
    7.3667   -4.8000    0.0000 O   0  0  0  0  0  0           0  0  0
    1.6625   -4.8042    0.0000 Cl  0  0  0  0  0  0           0  0  0
    0.2333   -5.6292    0.0000 Cl  0  0  0  0  0  0           0  0  0
    6.6542   -8.5125    0.0000 C   0  0  0  0  0  0           0  0  0
 13 10  1  0     0  0
 14 15  1  0     0  0
  5  6  1  0     0  0
  6  7  1  0     0  0
  7  8  2  0     0  0
 14 16  1  0     0  0
 10 16  1  0     0  0
  8  9  1  0     0  0
  2 17  2  0     0  0
 17 18  1  0     0  0
 18 15  2  0     0  0
 14  3  2  0     0  0
  2  3  1  0     0  0
  9 19  2  0     0  0
 10 11  2  0     0  0
  8 20  1  0     0  0
  4  5  1  0     0  0
 20 21  1  0     0  0
 11 12  1  0     0  0
 20 22  2  0     0  0
  6  1  1  0     0  0
 12  5  2  0     0  0
  3 23  1  0     0  0
  4  9  1  0     0  0
  2 24  1  0     0  0
  4 13  2  0     0  0
  1 25  1  0     0  0
M  END
>  <prID>
889

>  <IDDB>
241634

>  <pIC50_HIV_Integrase>
7.508638306

>  <Q>
-1.59880063

>  <Activity_Integrase>
Active_Integrase

NA
NA
NA
NA
$$$$

  Accelrys05311914302D 1   1.00000     0.00000     0

 26 28  0     0  0            999 V2000
    5.9417   -8.1000    0.0000 C   0  0  0  0  0  0           0  0  0
    0.9527   -6.0458    0.0000 C   0  0  0  0  0  0           0  0  0
    1.6692   -5.6324    0.0000 C   0  0  0  0  0  0           0  0  0
    5.2346   -6.0422    0.0000 C   0  0  0  0  0  0           0  0  0
    5.2346   -6.8672    0.0000 C   0  0  0  0  0  0           0  0  0
    5.9466   -7.2755    0.0000 N   0  0  3  0  0  0           0  0  0
    6.6587   -6.8672    0.0000 C   0  0  0  0  0  0           0  0  0
    6.6587   -6.0422    0.0000 C   0  0  0  0  0  0           0  0  0
    5.9466   -5.6255    0.0000 C   0  0  0  0  0  0           0  0  0
    3.8074   -6.0458    0.0000 C   0  0  0  0  0  0           0  0  0
    3.8062   -6.8732    0.0000 C   0  0  0  0  0  0           0  0  0
    4.5210   -7.2861    0.0000 C   0  0  0  0  0  0           0  0  0
    4.5192   -5.6331    0.0000 C   0  0  0  0  0  0           0  0  0
    2.3833   -6.0458    0.0000 C   0  0  0  0  0  0           0  0  0
    2.3833   -6.8708    0.0000 C   0  0  0  0  0  0           0  0  0
    3.0954   -5.6292    0.0000 C   0  0  0  0  0  0           0  0  0
    0.9516   -6.8732    0.0000 C   0  0  0  0  0  0           0  0  0
    1.6664   -7.2860    0.0000 C   0  0  0  0  0  0           0  0  0
    5.9417   -4.8000    0.0000 O   0  0  0  0  0  0           0  0  0
    7.3708   -5.6250    0.0000 C   0  0  0  0  0  0           0  0  0
    8.0833   -6.0375    0.0000 O   0  0  0  0  0  0           0  0  0
    7.3667   -4.8000    0.0000 O   0  0  0  0  0  0           0  0  0
    1.6625   -4.8042    0.0000 Cl  0  0  0  0  0  0           0  0  0
    0.2333   -5.6292    0.0000 Cl  0  0  0  0  0  0           0  0  0
    6.6542   -8.5125    0.0000 C   0  0  0  0  0  0           0  0  0
    7.3667   -8.0958    0.0000 C   0  0  0  0  0  0           0  0  0
 14 15  1  0     0  0
  5  6  1  0     0  0
  6  7  1  0     0  0
  7  8  2  0     0  0
 14 16  1  0     0  0
 10 16  1  0     0  0
  8  9  1  0     0  0
  2 17  2  0     0  0
 17 18  1  0     0  0
 18 15  2  0     0  0
 14  3  2  0     0  0
  2  3  1  0     0  0
  9 19  2  0     0  0
 10 11  2  0     0  0
  8 20  1  0     0  0
  4  5  1  0     0  0
 20 21  1  0     0  0
 11 12  1  0     0  0
 20 22  2  0     0  0
  6  1  1  0     0  0
 12  5  2  0     0  0
  3 23  1  0     0  0
  4  9  1  0     0  0
  2 24  1  0     0  0
  4 13  2  0     0  0
  1 25  1  0     0  0
 13 10  1  0     0  0
 25 26  1  0     0  0
M  END
>  <prID>
890

>  <IDDB>
241635

>  <pIC50_HIV_Integrase>
7.259637311

>  <Q>
-1.803189647

>  <Activity_Integrase>
Active_Integrase

NA
NA
NA
NA
$$$$

  Accelrys05311914302D 1   1.00000     0.00000     0

 27 29  0     0  0            999 V2000
    5.9417   -8.1000    0.0000 C   0  0  0  0  0  0           0  0  0
    0.9527   -6.0458    0.0000 C   0  0  0  0  0  0           0  0  0
    1.6692   -5.6324    0.0000 C   0  0  0  0  0  0           0  0  0
    5.2346   -6.0422    0.0000 C   0  0  0  0  0  0           0  0  0
    5.2346   -6.8672    0.0000 C   0  0  0  0  0  0           0  0  0
    5.9466   -7.2755    0.0000 N   0  0  3  0  0  0           0  0  0
    6.6587   -6.8672    0.0000 C   0  0  0  0  0  0           0  0  0
    6.6587   -6.0422    0.0000 C   0  0  0  0  0  0           0  0  0
    5.9466   -5.6255    0.0000 C   0  0  0  0  0  0           0  0  0
    3.8074   -6.0458    0.0000 C   0  0  0  0  0  0           0  0  0
    3.8062   -6.8732    0.0000 C   0  0  0  0  0  0           0  0  0
    4.5210   -7.2861    0.0000 C   0  0  0  0  0  0           0  0  0
    4.5192   -5.6331    0.0000 C   0  0  0  0  0  0           0  0  0
    2.3833   -6.0458    0.0000 C   0  0  0  0  0  0           0  0  0
    2.3833   -6.8708    0.0000 C   0  0  0  0  0  0           0  0  0
    3.0954   -5.6292    0.0000 C   0  0  0  0  0  0           0  0  0
    0.9516   -6.8732    0.0000 C   0  0  0  0  0  0           0  0  0
    1.6664   -7.2860    0.0000 C   0  0  0  0  0  0           0  0  0
    5.9417   -4.8000    0.0000 O   0  0  0  0  0  0           0  0  0
    7.3708   -5.6250    0.0000 C   0  0  0  0  0  0           0  0  0
    8.0833   -6.0375    0.0000 O   0  0  0  0  0  0           0  0  0
    7.3667   -4.8000    0.0000 O   0  0  0  0  0  0           0  0  0
    1.6625   -4.8042    0.0000 Cl  0  0  0  0  0  0           0  0  0
    0.2333   -5.6292    0.0000 Cl  0  0  0  0  0  0           0  0  0
    6.6542   -8.5125    0.0000 C   0  0  0  0  0  0           0  0  0
    7.3667   -8.0958    0.0000 C   0  0  0  0  0  0           0  0  0
    8.0792   -8.5083    0.0000 C   0  0  0  0  0  0           0  0  0
  5  6  1  0     0  0
  6  7  1  0     0  0
  7  8  2  0     0  0
 14 16  1  0     0  0
 10 16  1  0     0  0
  8  9  1  0     0  0
  2 17  2  0     0  0
 17 18  1  0     0  0
 18 15  2  0     0  0
 14  3  2  0     0  0
  2  3  1  0     0  0
  9 19  2  0     0  0
 10 11  2  0     0  0
  8 20  1  0     0  0
  4  5  1  0     0  0
 20 21  1  0     0  0
 11 12  1  0     0  0
 20 22  2  0     0  0
  6  1  1  0     0  0
 12  5  2  0     0  0
  3 23  1  0     0  0
  4  9  1  0     0  0
  2 24  1  0     0  0
  4 13  2  0     0  0
  1 25  1  0     0  0
 13 10  1  0     0  0
 25 26  1  0     0  0
 14 15  1  0     0  0
 26 27  1  0     0  0
M  END
>  <prID>
891

>  <IDDB>
241636

>  <pIC50_HIV_Integrase>
7.187086643

>  <Q>
-2.067198998

>  <Activity_Integrase>
Active_Integrase

NA
NA
NA
NA
$$$$

  Accelrys05311914302D 1   1.00000     0.00000     0

 26 28  0     0  0            999 V2000
    7.3599   -8.0898    0.0000 N   0  0  0  0  0  0           0  0  0
    6.6500   -8.5083    0.0000 C   0  0  0  0  0  0           0  0  0
    5.9417   -8.1000    0.0000 C   0  0  0  0  0  0           0  0  0
    0.9527   -6.0458    0.0000 C   0  0  0  0  0  0           0  0  0
    1.6692   -5.6324    0.0000 C   0  0  0  0  0  0           0  0  0
    5.2346   -6.0422    0.0000 C   0  0  0  0  0  0           0  0  0
    5.2346   -6.8672    0.0000 C   0  0  0  0  0  0           0  0  0
    5.9466   -7.2755    0.0000 N   0  0  3  0  0  0           0  0  0
    6.6587   -6.8672    0.0000 C   0  0  0  0  0  0           0  0  0
    6.6587   -6.0422    0.0000 C   0  0  0  0  0  0           0  0  0
    5.9466   -5.6255    0.0000 C   0  0  0  0  0  0           0  0  0
    3.8074   -6.0458    0.0000 C   0  0  0  0  0  0           0  0  0
    3.8062   -6.8732    0.0000 C   0  0  0  0  0  0           0  0  0
    4.5210   -7.2861    0.0000 C   0  0  0  0  0  0           0  0  0
    4.5192   -5.6331    0.0000 C   0  0  0  0  0  0           0  0  0
    2.3833   -6.0458    0.0000 C   0  0  0  0  0  0           0  0  0
    2.3833   -6.8708    0.0000 C   0  0  0  0  0  0           0  0  0
    3.0954   -5.6292    0.0000 C   0  0  0  0  0  0           0  0  0
    0.9516   -6.8732    0.0000 C   0  0  0  0  0  0           0  0  0
    1.6664   -7.2860    0.0000 C   0  0  0  0  0  0           0  0  0
    5.9417   -4.8000    0.0000 O   0  0  0  0  0  0           0  0  0
    7.3708   -5.6250    0.0000 C   0  0  0  0  0  0           0  0  0
    8.0833   -6.0375    0.0000 O   0  0  0  0  0  0           0  0  0
    7.3667   -4.8000    0.0000 O   0  0  0  0  0  0           0  0  0
    1.6625   -4.8042    0.0000 Cl  0  0  0  0  0  0           0  0  0
    0.2333   -5.6292    0.0000 Cl  0  0  0  0  0  0           0  0  0
  6 15  2  0     0  0
 15 12  1  0     0  0
 16 17  1  0     0  0
  7  8  1  0     0  0
  8  9  1  0     0  0
  9 10  2  0     0  0
 16 18  1  0     0  0
 12 18  1  0     0  0
 10 11  1  0     0  0
  4 19  2  0     0  0
 19 20  1  0     0  0
 20 17  2  0     0  0
 16  5  2  0     0  0
  4  5  1  0     0  0
 11 21  2  0     0  0
 12 13  2  0     0  0
 10 22  1  0     0  0
  6  7  1  0     0  0
 22 23  1  0     0  0
 13 14  1  0     0  0
 22 24  2  0     0  0
  8  3  1  0     0  0
 14  7  2  0     0  0
  5 25  1  0     0  0
  6 11  1  0     0  0
  4 26  1  0     0  0
  3  2  1  0     0  0
  2  1  1  0     0  0
M  END
>  <prID>
892

>  <IDDB>
241643

>  <pIC50_HIV_Integrase>
6.66756154

>  <Q>
-2.849545016

>  <Activity_Integrase>
Active_Integrase

NA
NA
NA
NA
$$$$

  Accelrys05311914302D 1   1.00000     0.00000     0

 26 28  0     0  0            999 V2000
    7.3641   -8.0940    0.0000 O   0  0  0  0  0  0           0  0  0
    5.9417   -8.1000    0.0000 C   0  0  0  0  0  0           0  0  0
    6.6565   -8.5129    0.0000 C   0  0  0  0  0  0           0  0  0
    8.0833   -6.0375    0.0000 O   0  0  0  0  0  0           0  0  0
    0.9527   -6.0458    0.0000 C   0  0  0  0  0  0           0  0  0
    1.6692   -5.6324    0.0000 C   0  0  0  0  0  0           0  0  0
    5.2346   -6.0422    0.0000 C   0  0  0  0  0  0           0  0  0
    5.2346   -6.8672    0.0000 C   0  0  0  0  0  0           0  0  0
    5.9466   -7.2755    0.0000 N   0  0  3  0  0  0           0  0  0
    6.6587   -6.8672    0.0000 C   0  0  0  0  0  0           0  0  0
    6.6587   -6.0422    0.0000 C   0  0  0  0  0  0           0  0  0
    5.9466   -5.6255    0.0000 C   0  0  0  0  0  0           0  0  0
    3.8074   -6.0458    0.0000 C   0  0  0  0  0  0           0  0  0
    3.8062   -6.8732    0.0000 C   0  0  0  0  0  0           0  0  0
    4.5210   -7.2861    0.0000 C   0  0  0  0  0  0           0  0  0
    4.5192   -5.6331    0.0000 C   0  0  0  0  0  0           0  0  0
    2.3833   -6.0458    0.0000 C   0  0  0  0  0  0           0  0  0
    2.3833   -6.8708    0.0000 C   0  0  0  0  0  0           0  0  0
    3.0954   -5.6292    0.0000 C   0  0  0  0  0  0           0  0  0
    0.9516   -6.8732    0.0000 C   0  0  0  0  0  0           0  0  0
    1.6664   -7.2860    0.0000 C   0  0  0  0  0  0           0  0  0
    5.9417   -4.8000    0.0000 O   0  0  0  0  0  0           0  0  0
    7.3708   -5.6250    0.0000 C   0  0  0  0  0  0           0  0  0
    7.3667   -4.8000    0.0000 O   0  0  0  0  0  0           0  0  0
    1.6625   -4.8042    0.0000 Cl  0  0  0  0  0  0           0  0  0
    0.2333   -5.6292    0.0000 F   0  0  0  0  0  0           0  0  0
 15  8  2  0     0  0
  7 16  2  0     0  0
 16 13  1  0     0  0
 17 18  1  0     0  0
  7 12  1  0     0  0
  8  9  1  0     0  0
  9 10  1  0     0  0
 17 19  1  0     0  0
 13 19  1  0     0  0
 10 11  2  0     0  0
  5 20  2  0     0  0
 11 12  1  0     0  0
 20 21  1  0     0  0
 21 18  2  0     0  0
 17  6  2  0     0  0
  5  6  1  0     0  0
 12 22  2  0     0  0
  7  8  1  0     0  0
 11 23  1  0     0  0
 23  4  1  0     0  0
 13 14  2  0     0  0
 23 24  2  0     0  0
  9  2  1  0     0  0
  2  3  1  0     0  0
  6 25  1  0     0  0
  3  1  1  0     0  0
 14 15  1  0     0  0
  5 26  1  0     0  0
M  END
>  <prID>
893

>  <IDDB>
241661

>  <pIC50_HIV_Integrase>
7.356547324

>  <Q>
-3.773952654

>  <Activity_Integrase>
Active_Integrase

NA
NA
NA
NA
$$$$

  Accelrys05311914302D 1   1.00000     0.00000     0

 28 30  0     0  0            999 V2000
    6.5458   -3.7417    0.0000 C   0  0  0  0  0  0           0  0  0
    6.5508   -2.9172    0.0000 N   0  0  3  0  0  0           0  0  0
    8.6875   -1.6792    0.0000 O   0  0  0  0  0  0           0  0  0
    1.5569   -1.6875    0.0000 C   0  0  0  0  0  0           0  0  0
    2.2733   -1.2741    0.0000 C   0  0  0  0  0  0           0  0  0
    5.8388   -1.6839    0.0000 C   0  0  0  0  0  0           0  0  0
    5.8388   -2.5089    0.0000 C   0  0  0  0  0  0           0  0  0
    7.2628   -2.5089    0.0000 C   0  0  0  0  0  0           0  0  0
    7.2628   -1.6839    0.0000 C   0  0  0  0  0  0           0  0  0
    6.5508   -1.2672    0.0000 C   0  0  0  0  0  0           0  0  0
    4.4115   -1.6875    0.0000 C   0  0  0  0  0  0           0  0  0
    4.4104   -2.5149    0.0000 C   0  0  0  0  0  0           0  0  0
    5.1252   -2.9277    0.0000 C   0  0  0  0  0  0           0  0  0
    5.1234   -1.2747    0.0000 C   0  0  0  0  0  0           0  0  0
    2.9875   -1.6875    0.0000 C   0  0  0  0  0  0           0  0  0
    2.9875   -2.5125    0.0000 C   0  0  0  0  0  0           0  0  0
    3.6995   -1.2708    0.0000 C   0  0  0  0  0  0           0  0  0
    1.5557   -2.5148    0.0000 C   0  0  0  0  0  0           0  0  0
    2.2706   -2.9277    0.0000 C   0  0  0  0  0  0           0  0  0
    6.5458   -0.4417    0.0000 O   0  0  0  0  0  0           0  0  0
    7.9750   -1.2667    0.0000 C   0  0  0  0  0  0           0  0  0
    7.9708   -0.4417    0.0000 O   0  0  0  0  0  0           0  0  0
    2.2667   -0.4458    0.0000 F   0  0  0  0  0  0           0  0  0
    0.8375   -1.2708    0.0000 Cl  0  0  0  0  0  0           0  0  0
    7.2583   -4.1542    0.0000 C   0  0  0  0  0  0           0  0  0
    7.9708   -3.7375    0.0000 O   0  0  0  0  0  0           0  0  0
    3.6917   -2.9208    0.0000 O   0  0  0  0  0  0           0  0  0
    3.6875   -3.7458    0.0000 C   0  0  0  0  0  0           0  0  0
 15 16  1  0     0  0
  6 10  1  0     0  0
  7  2  1  0     0  0
  2  8  1  0     0  0
 15 17  1  0     0  0
 11 17  1  0     0  0
  8  9  2  0     0  0
  4 18  2  0     0  0
  9 10  1  0     0  0
 18 19  1  0     0  0
 19 16  2  0     0  0
 15  5  2  0     0  0
 10 20  2  0     0  0
  4  5  1  0     0  0
  9 21  1  0     0  0
 21  3  1  0     0  0
 11 12  2  0     0  0
 21 22  2  0     0  0
  6  7  1  0     0  0
  5 23  1  0     0  0
 12 13  1  0     0  0
  4 24  1  0     0  0
 13  7  2  0     0  0
  1 25  1  0     0  0
  2  1  1  0     0  0
 25 26  1  0     0  0
  6 14  2  0     0  0
 12 27  1  0     0  0
 14 11  1  0     0  0
 27 28  1  0     0  0
M  END
>  <prID>
894

>  <IDDB>
241681

>  <pIC50_HIV_Integrase>
8.040958608

>  <Q>
-3.968927726

>  <Activity_Integrase>
Active_Integrase

NA
NA
NA
NA
$$$$

  Accelrys05311914302D 1   1.00000     0.00000     0

 27 29  0     0  0            999 V2000
    7.2089   -4.5948    0.0000 C   0  0  0  0  0  0           0  0  0
    6.5396   -4.1080    0.0000 C   0  0  0  0  0  0           0  0  0
    6.5425   -3.2797    0.0000 N   0  0  3  0  0  0           0  0  0
    8.6792   -2.0417    0.0000 O   0  0  0  0  0  0           0  0  0
    1.5486   -2.0500    0.0000 C   0  0  0  0  0  0           0  0  0
    2.2650   -1.6366    0.0000 C   0  0  0  0  0  0           0  0  0
    5.8304   -2.0464    0.0000 C   0  0  0  0  0  0           0  0  0
    5.8304   -2.8714    0.0000 C   0  0  0  0  0  0           0  0  0
    7.2545   -2.8714    0.0000 C   0  0  0  0  0  0           0  0  0
    7.2545   -2.0464    0.0000 C   0  0  0  0  0  0           0  0  0
    6.5425   -1.6297    0.0000 C   0  0  0  0  0  0           0  0  0
    4.4032   -2.0500    0.0000 C   0  0  0  0  0  0           0  0  0
    4.4020   -2.8774    0.0000 C   0  0  0  0  0  0           0  0  0
    5.1169   -3.2902    0.0000 C   0  0  0  0  0  0           0  0  0
    5.1151   -1.6372    0.0000 C   0  0  0  0  0  0           0  0  0
    2.9792   -2.0500    0.0000 C   0  0  0  0  0  0           0  0  0
    2.9792   -2.8750    0.0000 C   0  0  0  0  0  0           0  0  0
    3.6912   -1.6333    0.0000 C   0  0  0  0  0  0           0  0  0
    1.5474   -2.8773    0.0000 C   0  0  0  0  0  0           0  0  0
    2.2622   -3.2902    0.0000 C   0  0  0  0  0  0           0  0  0
    6.5375   -0.8042    0.0000 O   0  0  0  0  0  0           0  0  0
    7.9667   -1.6292    0.0000 C   0  0  0  0  0  0           0  0  0
    7.9625   -0.8042    0.0000 O   0  0  0  0  0  0           0  0  0
    2.2583   -0.8083    0.0000 Cl  0  0  0  0  0  0           0  0  0
    0.8292   -1.6333    0.0000 Cl  0  0  0  0  0  0           0  0  0
    7.9208   -4.1750    0.0000 O   0  0  0  0  0  0           0  0  0
    3.6833   -3.2833    0.0000 Cl  0  0  0  0  0  0           0  0  0
  5  6  1  0     0  0
  7 15  2  0     0  0
 15 12  1  0     0  0
 16 17  1  0     0  0
  7  8  1  0     0  0
  7 11  1  0     0  0
  8  3  1  0     0  0
 16 18  1  0     0  0
 12 18  1  0     0  0
  3  9  1  0     0  0
  5 19  2  0     0  0
  9 10  2  0     0  0
 19 20  1  0     0  0
 20 17  2  0     0  0
 16  6  2  0     0  0
 10 11  1  0     0  0
 11 21  2  0     0  0
  1  2  1  0     0  0
 10 22  1  0     0  0
 22  4  1  0     0  0
 22 23  2  0     0  0
 12 13  2  0     0  0
  6 24  1  0     0  0
  3  2  1  0     0  0
  5 25  1  0     0  0
 13 14  1  0     0  0
  1 26  1  0     0  0
 14  8  2  0     0  0
 13 27  1  0     0  0
M  END
>  <prID>
895

>  <IDDB>
241692

>  <pIC50_HIV_Integrase>
7.366531544

>  <Q>
-3.223089272

>  <Activity_Integrase>
Active_Integrase

NA
NA
NA
NA
$$$$

  Accelrys05311914302D 1   1.00000     0.00000     0

 30 32  0     0  0            999 V2000
    7.2089   -4.5948    0.0000 C   0  0  0  0  0  0           0  0  0
    6.5396   -4.1080    0.0000 C   0  0  0  0  0  0           0  0  0
    6.5425   -3.2797    0.0000 N   0  0  3  0  0  0           0  0  0
    8.6792   -2.0417    0.0000 O   0  0  0  0  0  0           0  0  0
    1.5486   -2.0500    0.0000 C   0  0  0  0  0  0           0  0  0
    2.2650   -1.6366    0.0000 C   0  0  0  0  0  0           0  0  0
    5.8304   -2.0464    0.0000 C   0  0  0  0  0  0           0  0  0
    5.8304   -2.8714    0.0000 C   0  0  0  0  0  0           0  0  0
    7.2545   -2.8714    0.0000 C   0  0  0  0  0  0           0  0  0
    7.2545   -2.0464    0.0000 C   0  0  0  0  0  0           0  0  0
    6.5425   -1.6297    0.0000 C   0  0  0  0  0  0           0  0  0
    4.4032   -2.0500    0.0000 C   0  0  0  0  0  0           0  0  0
    4.4020   -2.8774    0.0000 C   0  0  0  0  0  0           0  0  0
    5.1169   -3.2902    0.0000 C   0  0  0  0  0  0           0  0  0
    5.1151   -1.6372    0.0000 C   0  0  0  0  0  0           0  0  0
    2.9792   -2.0500    0.0000 C   0  0  0  0  0  0           0  0  0
    2.9792   -2.8750    0.0000 C   0  0  0  0  0  0           0  0  0
    3.6912   -1.6333    0.0000 C   0  0  0  0  0  0           0  0  0
    1.5474   -2.8773    0.0000 C   0  0  0  0  0  0           0  0  0
    2.2622   -3.2902    0.0000 C   0  0  0  0  0  0           0  0  0
    6.5375   -0.8042    0.0000 O   0  0  0  0  0  0           0  0  0
    7.9667   -1.6292    0.0000 C   0  0  0  0  0  0           0  0  0
    7.9625   -0.8042    0.0000 O   0  0  0  0  0  0           0  0  0
    2.2583   -0.8083    0.0000 Cl  0  0  0  0  0  0           0  0  0
    0.8292   -1.6333    0.0000 Cl  0  0  0  0  0  0           0  0  0
    7.9208   -4.1750    0.0000 O   0  0  0  0  0  0           0  0  0
    3.6833   -3.2833    0.0000 C   0  0  3  0  0  0           0  0  0
    3.6792   -4.1083    0.0000 F   0  0  0  0  0  0           0  0  0
    4.3333   -3.8083    0.0000 F   0  0  0  0  0  0           0  0  0
    2.9667   -3.6917    0.0000 F   0  0  0  0  0  0           0  0  0
 16 17  1  0     0  0
  7  8  1  0     0  0
  7 11  1  0     0  0
  8  3  1  0     0  0
 16 18  1  0     0  0
 12 18  1  0     0  0
  3  9  1  0     0  0
  5 19  2  0     0  0
  9 10  2  0     0  0
 19 20  1  0     0  0
 20 17  2  0     0  0
 16  6  2  0     0  0
 10 11  1  0     0  0
 11 21  2  0     0  0
  1  2  1  0     0  0
 10 22  1  0     0  0
 22  4  1  0     0  0
 22 23  2  0     0  0
 12 13  2  0     0  0
  6 24  1  0     0  0
  3  2  1  0     0  0
  5 25  1  0     0  0
 13 14  1  0     0  0
  1 26  1  0     0  0
 14  8  2  0     0  0
 13 27  1  0     0  0
  5  6  1  0     0  0
 27 28  1  0     0  0
  7 15  2  0     0  0
 27 29  1  0     0  0
 15 12  1  0     0  0
 27 30  1  0     0  0
M  END
>  <prID>
896

>  <IDDB>
241693

>  <pIC50_HIV_Integrase>
6.171340103

>  <Q>
-10.77453594

>  <Activity_Integrase>
Active_Integrase

NA
NA
NA
NA
$$$$

  Accelrys05311914302D 1   1.00000     0.00000     0

 27 29  0     0  0            999 V2000
    4.2422   -8.9948    0.0000 C   0  0  0  0  0  0           0  0  0
    3.5729   -8.5080    0.0000 C   0  0  1  0  0  0           0  0  0
    3.5758   -7.6797    0.0000 N   0  0  3  0  0  0           0  0  0
    5.7125   -6.4417    0.0000 O   0  0  0  0  0  0           0  0  0
   -1.4181   -6.4500    0.0000 C   0  0  0  0  0  0           0  0  0
   -0.7017   -6.0366    0.0000 C   0  0  0  0  0  0           0  0  0
    2.8638   -6.4464    0.0000 C   0  0  0  0  0  0           0  0  0
    2.8638   -7.2714    0.0000 C   0  0  0  0  0  0           0  0  0
    4.2878   -7.2714    0.0000 C   0  0  0  0  0  0           0  0  0
    4.2878   -6.4464    0.0000 C   0  0  0  0  0  0           0  0  0
    3.5758   -6.0297    0.0000 C   0  0  0  0  0  0           0  0  0
    1.4365   -6.4500    0.0000 C   0  0  0  0  0  0           0  0  0
    1.4354   -7.2774    0.0000 C   0  0  0  0  0  0           0  0  0
    2.1502   -7.6902    0.0000 C   0  0  0  0  0  0           0  0  0
    2.1484   -6.0372    0.0000 C   0  0  0  0  0  0           0  0  0
    0.0125   -6.4500    0.0000 C   0  0  0  0  0  0           0  0  0
    0.0125   -7.2750    0.0000 C   0  0  0  0  0  0           0  0  0
    0.7245   -6.0333    0.0000 C   0  0  0  0  0  0           0  0  0
   -1.4193   -7.2773    0.0000 C   0  0  0  0  0  0           0  0  0
   -0.7044   -7.6902    0.0000 C   0  0  0  0  0  0           0  0  0
    3.5708   -5.2042    0.0000 O   0  0  0  0  0  0           0  0  0
    5.0000   -6.0292    0.0000 C   0  0  0  0  0  0           0  0  0
    4.9958   -5.2042    0.0000 O   0  0  0  0  0  0           0  0  0
   -0.7083   -5.2083    0.0000 F   0  0  0  0  0  0           0  0  0
   -2.1375   -6.0333    0.0000 Cl  0  0  0  0  0  0           0  0  0
    4.9542   -8.5750    0.0000 O   0  0  0  0  0  0           0  0  0
    2.8542   -8.9125    0.0000 C   0  0  0  0  0  0           0  0  0
  5  6  1  0     0  0
  7 15  2  0     0  0
 15 12  1  0     0  0
 16 17  1  0     0  0
  7  8  1  0     0  0
  7 11  1  0     0  0
  8  3  1  0     0  0
 16 18  1  0     0  0
 12 18  1  0     0  0
  3  9  1  0     0  0
  5 19  2  0     0  0
  9 10  2  0     0  0
 19 20  1  0     0  0
 20 17  2  0     0  0
 16  6  2  0     0  0
 10 11  1  0     0  0
 11 21  2  0     0  0
  1  2  1  0     0  0
 10 22  1  0     0  0
 22  4  1  0     0  0
 22 23  2  0     0  0
 12 13  2  0     0  0
  6 24  1  0     0  0
  3  2  1  0     0  0
  5 25  1  0     0  0
 13 14  1  0     0  0
  1 26  1  0     0  0
 14  8  2  0     0  0
  2 27  1  6     0  0
M  END
>  <prID>
897

>  <IDDB>
241694

>  <pIC50_HIV_Integrase>
7.6232697555

>  <Q>
-4.056116584

>  <Activity_Integrase>
Active_Integrase

NA
NA
NA
NA
$$$$

  Accelrys05311914302D 1   1.00000     0.00000     0

 28 30  0     0  0            999 V2000
    8.3047   -5.8698    0.0000 C   0  0  0  0  0  0           0  0  0
    7.6354   -5.3830    0.0000 C   0  0  0  0  0  0           0  0  0
    7.6383   -4.5547    0.0000 N   0  0  3  0  0  0           0  0  0
    9.7750   -3.3167    0.0000 O   0  0  0  0  0  0           0  0  0
    2.6444   -3.3250    0.0000 C   0  0  0  0  0  0           0  0  0
    3.3608   -2.9116    0.0000 C   0  0  0  0  0  0           0  0  0
    6.9263   -3.3214    0.0000 C   0  0  0  0  0  0           0  0  0
    6.9263   -4.1464    0.0000 C   0  0  0  0  0  0           0  0  0
    8.3503   -4.1464    0.0000 C   0  0  0  0  0  0           0  0  0
    8.3503   -3.3214    0.0000 C   0  0  0  0  0  0           0  0  0
    7.6383   -2.9047    0.0000 C   0  0  0  0  0  0           0  0  0
    5.4990   -3.3250    0.0000 C   0  0  0  0  0  0           0  0  0
    5.4979   -4.1524    0.0000 C   0  0  0  0  0  0           0  0  0
    6.2127   -4.5652    0.0000 C   0  0  0  0  0  0           0  0  0
    6.2109   -2.9122    0.0000 C   0  0  0  0  0  0           0  0  0
    4.0750   -3.3250    0.0000 C   0  0  0  0  0  0           0  0  0
    4.0750   -4.1500    0.0000 C   0  0  0  0  0  0           0  0  0
    4.7870   -2.9083    0.0000 C   0  0  0  0  0  0           0  0  0
    2.6432   -4.1523    0.0000 C   0  0  0  0  0  0           0  0  0
    3.3581   -4.5652    0.0000 C   0  0  0  0  0  0           0  0  0
    7.6333   -2.0792    0.0000 O   0  0  0  0  0  0           0  0  0
    9.0625   -2.9042    0.0000 C   0  0  0  0  0  0           0  0  0
    9.0583   -2.0792    0.0000 O   0  0  0  0  0  0           0  0  0
    3.3542   -2.0833    0.0000 Cl  0  0  0  0  0  0           0  0  0
    1.9250   -2.9083    0.0000 Cl  0  0  0  0  0  0           0  0  0
    9.0167   -5.4500    0.0000 O   0  0  0  0  0  0           0  0  0
    4.7792   -4.5583    0.0000 C   0  0  0  0  0  0           0  0  0
    4.0625   -4.9667    0.0000 N   0  0  0  0  0  0           0  0  0
  7 15  2  0     0  0
 15 12  1  0     0  0
 16 17  1  0     0  0
  7  8  1  0     0  0
  7 11  1  0     0  0
  8  3  1  0     0  0
 16 18  1  0     0  0
 12 18  1  0     0  0
  3  9  1  0     0  0
  5 19  2  0     0  0
  9 10  2  0     0  0
 19 20  1  0     0  0
 20 17  2  0     0  0
 16  6  2  0     0  0
 10 11  1  0     0  0
 11 21  2  0     0  0
  1  2  1  0     0  0
 10 22  1  0     0  0
 22  4  1  0     0  0
 22 23  2  0     0  0
 12 13  2  0     0  0
  6 24  1  0     0  0
  3  2  1  0     0  0
  5 25  1  0     0  0
 13 14  1  0     0  0
  1 26  1  0     0  0
 14  8  2  0     0  0
 13 27  1  0     0  0
  5  6  1  0     0  0
 27 28  3  0     0  0
M  END
>  <prID>
898

>  <IDDB>
241698

>  <pIC50_HIV_Integrase>
7.301029996

>  <Q>
-1.901526105

>  <Activity_Integrase>
Active_Integrase

NA
NA
NA
NA
$$$$

  Accelrys05311914302D 1   1.00000     0.00000     0

 28 30  0     0  0            999 V2000
    7.2214   -5.0198    0.0000 C   0  0  0  0  0  0           0  0  0
    6.4938   -4.5914    0.0000 C   0  0  1  0  0  0           0  0  0
    6.4966   -3.7630    0.0000 N   0  0  3  0  0  0           0  0  0
    8.6333   -2.5250    0.0000 O   0  0  0  0  0  0           0  0  0
    1.5027   -2.5333    0.0000 C   0  0  0  0  0  0           0  0  0
    2.2192   -2.1199    0.0000 C   0  0  0  0  0  0           0  0  0
    5.7846   -2.5297    0.0000 C   0  0  0  0  0  0           0  0  0
    5.7846   -3.3547    0.0000 C   0  0  0  0  0  0           0  0  0
    7.2087   -3.3547    0.0000 C   0  0  0  0  0  0           0  0  0
    7.2087   -2.5297    0.0000 C   0  0  0  0  0  0           0  0  0
    6.4966   -2.1130    0.0000 C   0  0  0  0  0  0           0  0  0
    4.3574   -2.5333    0.0000 C   0  0  0  0  0  0           0  0  0
    4.3562   -3.3607    0.0000 C   0  0  0  0  0  0           0  0  0
    5.0710   -3.7736    0.0000 C   0  0  0  0  0  0           0  0  0
    5.0692   -2.1206    0.0000 C   0  0  0  0  0  0           0  0  0
    2.9333   -2.5333    0.0000 C   0  0  0  0  0  0           0  0  0
    2.9333   -3.3583    0.0000 C   0  0  0  0  0  0           0  0  0
    3.6454   -2.1167    0.0000 C   0  0  0  0  0  0           0  0  0
    1.5016   -3.3607    0.0000 C   0  0  0  0  0  0           0  0  0
    2.2164   -3.7735    0.0000 C   0  0  0  0  0  0           0  0  0
    6.4917   -1.2875    0.0000 O   0  0  0  0  0  0           0  0  0
    7.9208   -2.1125    0.0000 C   0  0  0  0  0  0           0  0  0
    7.9167   -1.2875    0.0000 O   0  0  0  0  0  0           0  0  0
    2.2125   -1.2917    0.0000 F   0  0  0  0  0  0           0  0  0
    0.7833   -2.1167    0.0000 Cl  0  0  0  0  0  0           0  0  0
    7.9333   -4.6000    0.0000 O   0  0  0  0  0  0           0  0  0
    5.7750   -4.9958    0.0000 C   0  0  0  0  0  0           0  0  0
    5.0583   -4.5833    0.0000 C   0  0  0  0  0  0           0  0  0
  7 15  2  0     0  0
 15 12  1  0     0  0
 16 17  1  0     0  0
  7  8  1  0     0  0
  7 11  1  0     0  0
  8  3  1  0     0  0
 16 18  1  0     0  0
 12 18  1  0     0  0
  3  9  1  0     0  0
  5 19  2  0     0  0
  9 10  2  0     0  0
 19 20  1  0     0  0
 20 17  2  0     0  0
 16  6  2  0     0  0
 10 11  1  0     0  0
 11 21  2  0     0  0
  1  2  1  0     0  0
 10 22  1  0     0  0
 22  4  1  0     0  0
 22 23  2  0     0  0
 12 13  2  0     0  0
  6 24  1  0     0  0
  2  3  1  6     0  0
  5 25  1  0     0  0
 13 14  1  0     0  0
  1 26  1  0     0  0
 14  8  2  0     0  0
  2 27  1  0     0  0
  5  6  1  0     0  0
 27 28  1  0     0  0
M  END
>  <prID>
899

>  <IDDB>
241722

>  <pIC50_HIV_Integrase>
8.045757491

>  <Q>
-4.305839514

>  <Activity_Integrase>
Active_Integrase

NA
NA
NA
NA
$$$$

  Accelrys05311914302D 1   1.00000     0.00000     0

 27 29  0     0  0            999 V2000
    7.4860   -4.3826    0.0000 C   0  0  0  0  0  0           0  0  0
    6.7583   -3.9542    0.0000 C   0  0  0  0  0  0           0  0  0
    8.1979   -3.9628    0.0000 O   0  0  0  0  0  0           0  0  0
    6.7633   -3.1297    0.0000 N   0  0  3  0  0  0           0  0  0
    8.9000   -1.8917    0.0000 O   0  0  0  0  0  0           0  0  0
    1.7652   -1.9375    0.0000 C   0  0  0  0  0  0           0  0  0
    2.4817   -1.5241    0.0000 C   0  0  0  0  0  0           0  0  0
    6.0513   -1.8964    0.0000 C   0  0  0  0  0  0           0  0  0
    6.0513   -2.7214    0.0000 C   0  0  0  0  0  0           0  0  0
    7.4753   -2.7214    0.0000 C   0  0  0  0  0  0           0  0  0
    7.4753   -1.8964    0.0000 C   0  0  0  0  0  0           0  0  0
    6.7633   -1.4797    0.0000 C   0  0  0  0  0  0           0  0  0
    4.6199   -1.9375    0.0000 C   0  0  0  0  0  0           0  0  0
    4.6229   -2.7274    0.0000 C   0  0  0  0  0  0           0  0  0
    5.3377   -3.1402    0.0000 C   0  0  0  0  0  0           0  0  0
    5.3359   -1.4872    0.0000 C   0  0  0  0  0  0           0  0  0
    3.1958   -1.9375    0.0000 C   0  0  0  0  0  0           0  0  0
    3.1958   -2.7625    0.0000 C   0  0  0  0  0  0           0  0  0
    3.9079   -1.5208    0.0000 C   0  0  0  0  0  0           0  0  0
    1.7641   -2.7648    0.0000 C   0  0  0  0  0  0           0  0  0
    2.4789   -3.1777    0.0000 C   0  0  0  0  0  0           0  0  0
    6.7583   -0.6542    0.0000 O   0  0  0  0  0  0           0  0  0
    8.1875   -1.4792    0.0000 C   0  0  0  0  0  0           0  0  0
    8.1833   -0.6542    0.0000 O   0  0  0  0  0  0           0  0  0
    2.4750   -0.6958    0.0000 Cl  0  0  0  0  0  0           0  0  0
    1.0458   -1.5208    0.0000 Cl  0  0  0  0  0  0           0  0  0
    3.9042   -3.1333    0.0000 F   0  0  0  0  0  0           0  0  0
 15  9  2  0     0  0
  6  7  1  0     0  0
  8 16  2  0     0  0
 16 13  1  0     0  0
 17 18  1  0     0  0
  8  9  1  0     0  0
  8 12  1  0     0  0
  9  4  1  0     0  0
 17 19  1  0     0  0
 13 19  1  0     0  0
  4 10  1  0     0  0
  6 20  2  0     0  0
 10 11  2  0     0  0
 20 21  1  0     0  0
 21 18  2  0     0  0
 17  7  2  0     0  0
 11 12  1  0     0  0
 12 22  2  0     0  0
 11 23  1  0     0  0
 23  5  1  0     0  0
  1  3  1  0     0  0
 23 24  2  0     0  0
  4  2  1  0     0  0
 13 14  2  0     0  0
  7 25  1  0     0  0
  1  2  1  0     0  0
  6 26  1  0     0  0
 14 15  1  0     0  0
 14 27  1  0     0  0
M  END
>  <prID>
900

>  <IDDB>
241746

>  <pIC50_HIV_Integrase>
7.602059991

>  <Q>
-4.712330119

>  <Activity_Integrase>
Active_Integrase

NA
NA
NA
NA
$$$$

  Accelrys05311914302D 1   1.00000     0.00000     0

 27 29  0     0  0            999 V2000
    7.4860   -4.3826    0.0000 C   0  0  0  0  0  0           0  0  0
    6.7583   -3.9542    0.0000 C   0  0  0  0  0  0           0  0  0
    8.1979   -3.9628    0.0000 O   0  0  0  0  0  0           0  0  0
    6.7633   -3.1297    0.0000 N   0  0  3  0  0  0           0  0  0
    8.9000   -1.8917    0.0000 O   0  0  0  0  0  0           0  0  0
    1.7652   -1.9375    0.0000 C   0  0  0  0  0  0           0  0  0
    2.4817   -1.5241    0.0000 C   0  0  0  0  0  0           0  0  0
    6.0513   -1.8964    0.0000 C   0  0  0  0  0  0           0  0  0
    6.0513   -2.7214    0.0000 C   0  0  0  0  0  0           0  0  0
    7.4753   -2.7214    0.0000 C   0  0  0  0  0  0           0  0  0
    7.4753   -1.8964    0.0000 C   0  0  0  0  0  0           0  0  0
    6.7633   -1.4797    0.0000 C   0  0  0  0  0  0           0  0  0
    4.6199   -1.9375    0.0000 C   0  0  0  0  0  0           0  0  0
    4.6229   -2.7274    0.0000 C   0  0  0  0  0  0           0  0  0
    5.3377   -3.1402    0.0000 C   0  0  0  0  0  0           0  0  0
    5.3359   -1.4872    0.0000 C   0  0  0  0  0  0           0  0  0
    3.1958   -1.9375    0.0000 C   0  0  0  0  0  0           0  0  0
    3.1958   -2.7625    0.0000 C   0  0  0  0  0  0           0  0  0
    3.9079   -1.5208    0.0000 C   0  0  0  0  0  0           0  0  0
    1.7641   -2.7648    0.0000 C   0  0  0  0  0  0           0  0  0
    2.4789   -3.1777    0.0000 C   0  0  0  0  0  0           0  0  0
    6.7583   -0.6542    0.0000 O   0  0  0  0  0  0           0  0  0
    8.1875   -1.4792    0.0000 C   0  0  0  0  0  0           0  0  0
    8.1833   -0.6542    0.0000 O   0  0  0  0  0  0           0  0  0
    2.4750   -0.6958    0.0000 Cl  0  0  0  0  0  0           0  0  0
    1.0458   -1.5208    0.0000 Cl  0  0  0  0  0  0           0  0  0
    5.3292   -0.6583    0.0000 F   0  0  0  0  0  0           0  0  0
 15  9  2  0     0  0
  6  7  1  0     0  0
  8 16  2  0     0  0
 16 13  1  0     0  0
 17 18  1  0     0  0
  8  9  1  0     0  0
  8 12  1  0     0  0
  9  4  1  0     0  0
 17 19  1  0     0  0
 13 19  1  0     0  0
  4 10  1  0     0  0
  6 20  2  0     0  0
 10 11  2  0     0  0
 20 21  1  0     0  0
 21 18  2  0     0  0
 17  7  2  0     0  0
 11 12  1  0     0  0
 12 22  2  0     0  0
 11 23  1  0     0  0
 23  5  1  0     0  0
  1  3  1  0     0  0
 23 24  2  0     0  0
  4  2  1  0     0  0
 13 14  2  0     0  0
  7 25  1  0     0  0
  1  2  1  0     0  0
  6 26  1  0     0  0
 14 15  1  0     0  0
 16 27  1  0     0  0
M  END
>  <prID>
901

>  <IDDB>
241748

>  <pIC50_HIV_Integrase>
7.075720714

>  <Q>
-4.66320686

>  <Activity_Integrase>
Active_Integrase

NA
NA
NA
NA
$$$$

  Accelrys05311914302D 1   1.00000     0.00000     0

 27 29  0     0  0            999 V2000
    7.4860   -4.3826    0.0000 C   0  0  0  0  0  0           0  0  0
    6.7583   -3.9542    0.0000 C   0  0  0  0  0  0           0  0  0
    8.1979   -3.9628    0.0000 O   0  0  0  0  0  0           0  0  0
    6.7633   -3.1297    0.0000 N   0  0  3  0  0  0           0  0  0
    8.9000   -1.8917    0.0000 O   0  0  0  0  0  0           0  0  0
    1.7652   -1.9375    0.0000 C   0  0  0  0  0  0           0  0  0
    2.4817   -1.5241    0.0000 C   0  0  0  0  0  0           0  0  0
    6.0513   -1.8964    0.0000 C   0  0  0  0  0  0           0  0  0
    6.0513   -2.7214    0.0000 C   0  0  0  0  0  0           0  0  0
    7.4753   -2.7214    0.0000 C   0  0  0  0  0  0           0  0  0
    7.4753   -1.8964    0.0000 C   0  0  0  0  0  0           0  0  0
    6.7633   -1.4797    0.0000 C   0  0  0  0  0  0           0  0  0
    4.6199   -1.9375    0.0000 C   0  0  0  0  0  0           0  0  0
    4.6229   -2.7274    0.0000 C   0  0  0  0  0  0           0  0  0
    5.3377   -3.1402    0.0000 C   0  0  0  0  0  0           0  0  0
    5.3359   -1.4872    0.0000 C   0  0  0  0  0  0           0  0  0
    3.1958   -1.9375    0.0000 C   0  0  0  0  0  0           0  0  0
    3.1958   -2.7625    0.0000 C   0  0  0  0  0  0           0  0  0
    3.9079   -1.5208    0.0000 C   0  0  0  0  0  0           0  0  0
    1.7641   -2.7648    0.0000 C   0  0  0  0  0  0           0  0  0
    2.4789   -3.1777    0.0000 C   0  0  0  0  0  0           0  0  0
    6.7583   -0.6542    0.0000 O   0  0  0  0  0  0           0  0  0
    8.1875   -1.4792    0.0000 C   0  0  0  0  0  0           0  0  0
    8.1833   -0.6542    0.0000 O   0  0  0  0  0  0           0  0  0
    2.4750   -0.6958    0.0000 Cl  0  0  0  0  0  0           0  0  0
    1.0458   -1.5208    0.0000 Cl  0  0  0  0  0  0           0  0  0
    3.9042   -3.1333    0.0000 C   0  0  0  0  0  0           0  0  0
 15  9  2  0     0  0
  6  7  1  0     0  0
  8 16  2  0     0  0
 16 13  1  0     0  0
 17 18  1  0     0  0
  8  9  1  0     0  0
  8 12  1  0     0  0
  9  4  1  0     0  0
 17 19  1  0     0  0
 13 19  1  0     0  0
  4 10  1  0     0  0
  6 20  2  0     0  0
 10 11  2  0     0  0
 20 21  1  0     0  0
 21 18  2  0     0  0
 17  7  2  0     0  0
 11 12  1  0     0  0
 12 22  2  0     0  0
 11 23  1  0     0  0
 23  5  1  0     0  0
  1  3  1  0     0  0
 23 24  2  0     0  0
  4  2  1  0     0  0
 13 14  2  0     0  0
  7 25  1  0     0  0
  1  2  1  0     0  0
  6 26  1  0     0  0
 14 15  1  0     0  0
 14 27  1  0     0  0
M  END
>  <prID>
902

>  <IDDB>
241750

>  <pIC50_HIV_Integrase>
7.387216143

>  <Q>
-2.504953888

>  <Activity_Integrase>
Active_Integrase

NA
NA
NA
NA
$$$$

  Accelrys05311914302D 1   1.00000     0.00000     0

 32 35  0     0  0            999 V2000
    4.6176   -4.3625    0.0000 C   0  0  0  0  0  0           0  0  0
    4.6176   -5.1875    0.0000 C   0  0  0  0  0  0           0  0  0
    5.3296   -5.5958    0.0000 C   0  0  0  0  0  0           0  0  0
    6.0417   -5.1875    0.0000 C   0  0  0  0  0  0           0  0  0
    6.0417   -4.3625    0.0000 C   0  0  3  0  0  0           0  0  0
    5.3296   -3.9458    0.0000 C   0  0  0  0  0  0           0  0  0
    7.4860   -4.3826    0.0000 C   0  0  0  0  0  0           0  0  0
    6.7583   -3.9542    0.0000 C   0  0  1  0  0  0           0  0  0
    8.1979   -3.9628    0.0000 O   0  0  0  0  0  0           0  0  0
    6.7633   -3.1297    0.0000 N   0  0  3  0  0  0           0  0  0
    8.9000   -1.8917    0.0000 O   0  0  0  0  0  0           0  0  0
    1.7652   -1.9375    0.0000 C   0  0  0  0  0  0           0  0  0
    2.4817   -1.5241    0.0000 C   0  0  0  0  0  0           0  0  0
    6.0513   -1.8964    0.0000 C   0  0  0  0  0  0           0  0  0
    6.0513   -2.7214    0.0000 C   0  0  0  0  0  0           0  0  0
    7.4753   -2.7214    0.0000 C   0  0  0  0  0  0           0  0  0
    7.4753   -1.8964    0.0000 C   0  0  0  0  0  0           0  0  0
    6.7633   -1.4797    0.0000 C   0  0  0  0  0  0           0  0  0
    4.6199   -1.9375    0.0000 C   0  0  0  0  0  0           0  0  0
    4.6229   -2.7274    0.0000 C   0  0  0  0  0  0           0  0  0
    5.3377   -3.1402    0.0000 C   0  0  0  0  0  0           0  0  0
    5.3359   -1.4872    0.0000 C   0  0  0  0  0  0           0  0  0
    3.1958   -1.9375    0.0000 C   0  0  0  0  0  0           0  0  0
    3.1958   -2.7625    0.0000 C   0  0  0  0  0  0           0  0  0
    3.9079   -1.5208    0.0000 C   0  0  0  0  0  0           0  0  0
    1.7641   -2.7648    0.0000 C   0  0  0  0  0  0           0  0  0
    2.4789   -3.1777    0.0000 C   0  0  0  0  0  0           0  0  0
    6.7583   -0.6542    0.0000 O   0  0  0  0  0  0           0  0  0
    8.1875   -1.4792    0.0000 C   0  0  0  0  0  0           0  0  0
    8.1833   -0.6542    0.0000 O   0  0  0  0  0  0           0  0  0
    2.4750   -0.6958    0.0000 F   0  0  0  0  0  0           0  0  0
    1.0458   -1.5208    0.0000 Cl  0  0  0  0  0  0           0  0  0
 16 17  2  0     0  0
 17 18  1  0     0  0
  2  3  1  0     0  0
  3  4  1  0     0  0
 19 20  2  0     0  0
  4  5  1  0     0  0
 20 21  1  0     0  0
 21 15  2  0     0  0
  5  6  1  0     0  0
 14 22  2  0     0  0
 22 19  1  0     0  0
 23 24  1  0     0  0
 12 13  1  0     0  0
 14 15  1  0     0  0
 23 25  1  0     0  0
 19 25  1  0     0  0
  1  2  1  0     0  0
 12 26  2  0     0  0
  7  8  1  0     0  0
 26 27  1  0     0  0
 27 24  2  0     0  0
 23 13  2  0     0  0
  1  6  1  0     0  0
 18 28  2  0     0  0
  7  9  1  0     0  0
 17 29  1  0     0  0
 29 11  1  0     0  0
 14 18  1  0     0  0
 29 30  2  0     0  0
  8 10  1  6     0  0
 15 10  1  0     0  0
 13 31  1  0     0  0
 10 16  1  0     0  0
 12 32  1  0     0  0
  8  5  1  0     0  0
M  END
>  <prID>
903

>  <IDDB>
241753

>  <pIC50_HIV_Integrase>
8.251811973

>  <Q>
-5.473450977

>  <Activity_Integrase>
Active_Integrase

NA
NA
NA
NA
$$$$

  Accelrys05311914302D 1   1.00000     0.00000     0

 31 33  0     0  0            999 V2000
   10.8199  -11.0158    0.0000 C   0  0  3  0  0  0           0  0  0
   12.6934  -11.1513    0.0000 C   0  0  0  0  0  0           0  0  0
   11.6508  -10.5352    0.0000 C   0  0  1  0  0  0           0  0  0
   13.7134  -10.5474    0.0000 O   0  0  0  0  0  0           0  0  0
   11.6508   -9.3547    0.0000 N   0  0  3  0  0  0           0  0  0
   14.7194   -7.5853    0.0000 O   0  0  0  0  0  0           0  0  0
    4.5027   -7.6505    0.0000 C   0  0  0  0  0  0           0  0  0
    5.5293   -7.0558    0.0000 C   0  0  0  0  0  0           0  0  0
   10.6379   -7.5920    0.0000 C   0  0  0  0  0  0           0  0  0
   10.6379   -8.7731    0.0000 C   0  0  0  0  0  0           0  0  0
   12.6781   -8.7731    0.0000 C   0  0  0  0  0  0           0  0  0
   12.6781   -7.5920    0.0000 C   0  0  0  0  0  0           0  0  0
   11.6579   -6.9925    0.0000 C   0  0  0  0  0  0           0  0  0
    8.5929   -7.6505    0.0000 C   0  0  0  0  0  0           0  0  0
    8.5929   -8.7817    0.0000 C   0  0  0  0  0  0           0  0  0
    9.6214   -9.3697    0.0000 C   0  0  0  0  0  0           0  0  0
    9.6188   -7.0032    0.0000 C   0  0  0  0  0  0           0  0  0
    6.5525   -7.6505    0.0000 C   0  0  0  0  0  0           0  0  0
    6.5525   -8.8317    0.0000 C   0  0  0  0  0  0           0  0  0
    7.5727   -7.0511    0.0000 C   0  0  0  0  0  0           0  0  0
    4.5027   -8.8349    0.0000 C   0  0  0  0  0  0           0  0  0
    5.5253   -9.4231    0.0000 C   0  0  0  0  0  0           0  0  0
   11.6579   -5.8107    0.0000 O   0  0  0  0  0  0           0  0  0
   13.6986   -6.9918    0.0000 C   0  0  0  0  0  0           0  0  0
   13.6986   -5.8107    0.0000 O   0  0  0  0  0  0           0  0  0
    5.5293   -5.8699    0.0000 F   0  0  0  0  0  0           0  0  0
    3.4721   -7.0511    0.0000 Cl  0  0  0  0  0  0           0  0  0
    7.5675   -9.3599    0.0000 O   0  0  0  0  0  0           0  0  0
    7.2410  -10.3688    0.0000 C   0  0  0  0  0  0           0  0  0
    9.7932  -10.4224    0.0000 C   0  0  0  0  0  0           0  0  0
   10.8199  -12.1970    0.0000 C   0  0  0  0  0  0           0  0  0
 17 14  1  0     0  0
 18 19  1  0     0  0
  9 10  1  0     0  0
  9 13  1  0     0  0
 10  5  1  0     0  0
 18 20  1  0     0  0
 14 20  1  0     0  0
  5 11  1  0     0  0
  7 21  2  0     0  0
 11 12  2  0     0  0
 21 22  1  0     0  0
 22 19  2  0     0  0
 18  8  2  0     0  0
 12 13  1  0     0  0
 13 23  2  0     0  0
 12 24  1  0     0  0
 24  6  1  0     0  0
  2  4  1  0     0  0
 24 25  2  0     0  0
  3  5  1  0     0  0
 14 15  2  0     0  0
  8 26  1  0     0  0
  3  2  1  0     0  0
  7 27  1  0     0  0
  3  1  1  6     0  0
 15 16  1  0     0  0
 15 28  1  0     0  0
 16 10  2  0     0  0
 28 29  1  0     0  0
  7  8  1  0     0  0
  1 30  1  0     0  0
  9 17  2  0     0  0
  1 31  1  0     0  0
M  END
>  <prID>
904

>  <IDDB>
241767

>  <pIC50_HIV_Integrase>
7.841637508

>  <Q>
-4.574665922

>  <Activity_Integrase>
Active_Integrase

NA
NA
NA
NA
$$$$

  Accelrys05311914302D 1   1.00000     0.00000     0

 32 34  0     0  0            999 V2000
    7.0500   -5.0250    0.0000 C   0  0  3  0  0  0           0  0  0
    8.3610   -5.1201    0.0000 C   0  0  0  0  0  0           0  0  0
    7.6333   -4.6917    0.0000 C   0  0  1  0  0  0           0  0  0
    9.0729   -4.7003    0.0000 O   0  0  0  0  0  0           0  0  0
    7.6383   -3.8672    0.0000 N   0  0  3  0  0  0           0  0  0
    9.7750   -2.6292    0.0000 O   0  0  0  0  0  0           0  0  0
    2.6402   -2.6750    0.0000 C   0  0  0  0  0  0           0  0  0
    3.3567   -2.2616    0.0000 C   0  0  0  0  0  0           0  0  0
    6.9263   -2.6339    0.0000 C   0  0  0  0  0  0           0  0  0
    6.9263   -3.4589    0.0000 C   0  0  0  0  0  0           0  0  0
    8.3503   -3.4589    0.0000 C   0  0  0  0  0  0           0  0  0
    8.3503   -2.6339    0.0000 C   0  0  0  0  0  0           0  0  0
    7.6383   -2.2172    0.0000 C   0  0  0  0  0  0           0  0  0
    5.4949   -2.6750    0.0000 C   0  0  0  0  0  0           0  0  0
    5.4979   -3.4649    0.0000 C   0  0  0  0  0  0           0  0  0
    6.2127   -3.8777    0.0000 C   0  0  0  0  0  0           0  0  0
    6.2109   -2.2247    0.0000 C   0  0  0  0  0  0           0  0  0
    4.0708   -2.6750    0.0000 C   0  0  0  0  0  0           0  0  0
    4.0708   -3.5000    0.0000 C   0  0  0  0  0  0           0  0  0
    4.7829   -2.2583    0.0000 C   0  0  0  0  0  0           0  0  0
    2.6391   -3.5023    0.0000 C   0  0  0  0  0  0           0  0  0
    3.3539   -3.9152    0.0000 C   0  0  0  0  0  0           0  0  0
    7.6333   -1.3917    0.0000 O   0  0  0  0  0  0           0  0  0
    9.0625   -2.2167    0.0000 C   0  0  0  0  0  0           0  0  0
    9.0583   -1.3917    0.0000 O   0  0  0  0  0  0           0  0  0
    3.3500   -1.4333    0.0000 F   0  0  0  0  0  0           0  0  0
    1.9208   -2.2583    0.0000 Cl  0  0  0  0  0  0           0  0  0
    4.7792   -3.8708    0.0000 O   0  0  0  0  0  0           0  0  0
    4.7750   -4.6958    0.0000 C   0  0  0  0  0  0           0  0  0
    6.3333   -4.6125    0.0000 C   0  0  0  0  0  0           0  0  0
    7.0458   -5.8500    0.0000 C   0  0  0  0  0  0           0  0  0
    6.3333   -5.4333    0.0000 C   0  0  0  0  0  0           0  0  0
 18 19  1  0     0  0
  9 10  1  0     0  0
  9 13  1  0     0  0
 10  5  1  0     0  0
 18 20  1  0     0  0
 14 20  1  0     0  0
  5 11  1  0     0  0
  7 21  2  0     0  0
 11 12  2  0     0  0
 21 22  1  0     0  0
 22 19  2  0     0  0
 18  8  2  0     0  0
 12 13  1  0     0  0
 13 23  2  0     0  0
 12 24  1  0     0  0
 24  6  1  0     0  0
  2  4  1  0     0  0
 24 25  2  0     0  0
  3  5  1  0     0  0
 14 15  2  0     0  0
  8 26  1  0     0  0
  3  2  1  0     0  0
  7 27  1  0     0  0
  3  1  1  6     0  0
 15 16  1  0     0  0
 15 28  1  0     0  0
 16 10  2  0     0  0
 28 29  1  0     0  0
  7  8  1  0     0  0
  1 30  1  0     0  0
  9 17  2  0     0  0
  1 31  1  0     0  0
 17 14  1  0     0  0
  1 32  1  0     0  0
M  END
>  <prID>
905

>  <IDDB>
241768

>  <pIC50_HIV_Integrase>
8.236572006

>  <Q>
-4.340925609

>  <Activity_Integrase>
Active_Integrase

NA
NA
NA
NA
$$$$

  Accelrys05311914302D 1   1.00000     0.00000     0

 31 33  0     0  0            999 V2000
    6.9875   -5.0250    0.0000 C   0  0  0  0  0  0           0  0  0
    8.3610   -5.1201    0.0000 C   0  0  0  0  0  0           0  0  0
    7.6333   -4.6917    0.0000 C   0  0  1  0  0  0           0  0  0
    9.0729   -4.7003    0.0000 O   0  0  0  0  0  0           0  0  0
    7.6383   -3.8672    0.0000 N   0  0  3  0  0  0           0  0  0
    9.7750   -2.6292    0.0000 O   0  0  0  0  0  0           0  0  0
    2.6402   -2.6750    0.0000 C   0  0  0  0  0  0           0  0  0
    3.3567   -2.2616    0.0000 C   0  0  0  0  0  0           0  0  0
    6.9263   -2.6339    0.0000 C   0  0  0  0  0  0           0  0  0
    6.9263   -3.4589    0.0000 C   0  0  0  0  0  0           0  0  0
    8.3503   -3.4589    0.0000 C   0  0  0  0  0  0           0  0  0
    8.3503   -2.6339    0.0000 C   0  0  0  0  0  0           0  0  0
    7.6383   -2.2172    0.0000 C   0  0  0  0  0  0           0  0  0
    5.4949   -2.6750    0.0000 C   0  0  0  0  0  0           0  0  0
    5.4979   -3.4649    0.0000 C   0  0  0  0  0  0           0  0  0
    6.2127   -3.8777    0.0000 C   0  0  0  0  0  0           0  0  0
    6.2109   -2.2247    0.0000 C   0  0  0  0  0  0           0  0  0
    4.0708   -2.6750    0.0000 C   0  0  0  0  0  0           0  0  0
    4.0708   -3.5000    0.0000 C   0  0  0  0  0  0           0  0  0
    4.7829   -2.2583    0.0000 C   0  0  0  0  0  0           0  0  0
    2.6391   -3.5023    0.0000 C   0  0  0  0  0  0           0  0  0
    3.3539   -3.9152    0.0000 C   0  0  0  0  0  0           0  0  0
    7.6333   -1.3917    0.0000 O   0  0  0  0  0  0           0  0  0
    9.0625   -2.2167    0.0000 C   0  0  0  0  0  0           0  0  0
    9.0583   -1.3917    0.0000 O   0  0  0  0  0  0           0  0  0
    3.3500   -1.4333    0.0000 F   0  0  0  0  0  0           0  0  0
    1.9208   -2.2583    0.0000 Cl  0  0  0  0  0  0           0  0  0
    6.9875   -5.8042    0.0000 C   0  0  0  0  0  0           0  0  0
    4.7792   -3.8708    0.0000 O   0  0  0  0  0  0           0  0  0
    4.7750   -4.6958    0.0000 C   0  0  0  0  0  0           0  0  0
    6.3125   -6.1917    0.0000 C   0  0  0  0  0  0           0  0  0
 17 14  1  0     0  0
 18 19  1  0     0  0
  9 10  1  0     0  0
  9 13  1  0     0  0
 10  5  1  0     0  0
 18 20  1  0     0  0
 14 20  1  0     0  0
  5 11  1  0     0  0
  7 21  2  0     0  0
 11 12  2  0     0  0
 21 22  1  0     0  0
 22 19  2  0     0  0
 18  8  2  0     0  0
 12 13  1  0     0  0
 13 23  2  0     0  0
 12 24  1  0     0  0
 24  6  1  0     0  0
  2  4  1  0     0  0
 24 25  2  0     0  0
  3  5  1  0     0  0
 14 15  2  0     0  0
  8 26  1  0     0  0
  3  2  1  0     0  0
  7 27  1  0     0  0
  3  1  1  6     0  0
 15 16  1  0     0  0
  1 28  1  0     0  0
 16 10  2  0     0  0
 15 29  1  0     0  0
  7  8  1  0     0  0
 29 30  1  0     0  0
  9 17  2  0     0  0
 28 31  1  0     0  0
M  END
>  <prID>
906

>  <IDDB>
241773

>  <pIC50_HIV_Integrase>
8.236572006

>  <Q>
-4.82430429

>  <Activity_Integrase>
Active_Integrase

NA
NA
NA
NA
$$$$

  Accelrys05311914302D 1   1.00000     0.00000     0

 34 37  0     0  0            999 V2000
    5.5760   -5.0292    0.0000 C   0  0  0  0  0  0           0  0  0
    5.5760   -5.8542    0.0000 C   0  0  0  0  0  0           0  0  0
    6.2880   -6.2625    0.0000 C   0  0  0  0  0  0           0  0  0
    7.0000   -5.8542    0.0000 C   0  0  0  0  0  0           0  0  0
    7.0000   -5.0292    0.0000 C   0  0  3  0  0  0           0  0  0
    6.2880   -4.6125    0.0000 C   0  0  0  0  0  0           0  0  0
    8.3735   -5.1242    0.0000 C   0  0  0  0  0  0           0  0  0
    7.6458   -4.6958    0.0000 C   0  0  1  0  0  0           0  0  0
    8.3646   -5.8670    0.0000 O   0  0  0  0  0  0           0  0  0
    7.6417   -3.8708    0.0000 N   0  0  3  0  0  0           0  0  0
    9.7750   -2.6292    0.0000 O   0  0  0  0  0  0           0  0  0
    2.6402   -2.6750    0.0000 C   0  0  0  0  0  0           0  0  0
    3.3567   -2.2616    0.0000 C   0  0  0  0  0  0           0  0  0
    6.9263   -2.6339    0.0000 C   0  0  0  0  0  0           0  0  0
    6.9263   -3.4589    0.0000 C   0  0  0  0  0  0           0  0  0
    8.3503   -3.4589    0.0000 C   0  0  0  0  0  0           0  0  0
    8.3503   -2.6339    0.0000 C   0  0  0  0  0  0           0  0  0
    7.6383   -2.2172    0.0000 C   0  0  0  0  0  0           0  0  0
    5.4949   -2.6750    0.0000 C   0  0  0  0  0  0           0  0  0
    5.4979   -3.4649    0.0000 C   0  0  0  0  0  0           0  0  0
    6.2127   -3.8777    0.0000 C   0  0  0  0  0  0           0  0  0
    6.2109   -2.2247    0.0000 C   0  0  0  0  0  0           0  0  0
    4.0708   -2.6750    0.0000 C   0  0  0  0  0  0           0  0  0
    4.0708   -3.5000    0.0000 C   0  0  0  0  0  0           0  0  0
    4.7829   -2.2583    0.0000 C   0  0  0  0  0  0           0  0  0
    2.6391   -3.5023    0.0000 C   0  0  0  0  0  0           0  0  0
    3.3539   -3.9152    0.0000 C   0  0  0  0  0  0           0  0  0
    7.6333   -1.3917    0.0000 O   0  0  0  0  0  0           0  0  0
    9.0625   -2.2167    0.0000 C   0  0  0  0  0  0           0  0  0
    9.0583   -1.3917    0.0000 O   0  0  0  0  0  0           0  0  0
    3.3500   -1.4333    0.0000 F   0  0  0  0  0  0           0  0  0
    1.9208   -2.2583    0.0000 Cl  0  0  0  0  0  0           0  0  0
    4.7792   -3.8708    0.0000 O   0  0  0  0  0  0           0  0  0
    4.7750   -4.6958    0.0000 C   0  0  0  0  0  0           0  0  0
 16 17  2  0     0  0
 17 18  1  0     0  0
  8  5  1  6     0  0
  2  3  1  0     0  0
 19 20  2  0     0  0
  8 10  1  0     0  0
 20 21  1  0     0  0
 21 15  2  0     0  0
  3  4  1  0     0  0
 14 22  2  0     0  0
 22 19  1  0     0  0
 23 24  1  0     0  0
  4  5  1  0     0  0
  5  6  1  0     0  0
 12 13  1  0     0  0
 23 25  1  0     0  0
 19 25  1  0     0  0
 14 15  1  0     0  0
 12 26  2  0     0  0
 26 27  1  0     0  0
 27 24  2  0     0  0
 23 13  2  0     0  0
  1  2  1  0     0  0
 18 28  2  0     0  0
  8  7  1  0     0  0
 17 29  1  0     0  0
 29 11  1  0     0  0
  1  6  1  0     0  0
 29 30  2  0     0  0
  7  9  1  0     0  0
 13 31  1  0     0  0
 14 18  1  0     0  0
 12 32  1  0     0  0
 15 10  1  0     0  0
 20 33  1  0     0  0
 10 16  1  0     0  0
 33 34  1  0     0  0
M  END
>  <prID>
907

>  <IDDB>
241777

>  <pIC50_HIV_Integrase>
8.173925197

>  <Q>
-5.73403776

>  <Activity_Integrase>
Active_Integrase

NA
NA
NA
NA
$$$$

  Accelrys05311914302D 1   1.00000     0.00000     0

 29 31  0     0  0            999 V2000
    6.7652   -1.7333    0.0000 C   0  0  0  0  0  0           0  0  0
    6.7641   -2.5607    0.0000 C   0  0  0  0  0  0           0  0  0
    7.4789   -2.9735    0.0000 C   0  0  0  0  0  0           0  0  0
    8.1953   -2.5602    0.0000 C   0  0  0  0  0  0           0  0  0
    8.1925   -1.7297    0.0000 C   0  0  0  0  0  0           0  0  0
    7.4771   -1.3205    0.0000 C   0  0  0  0  0  0           0  0  0
    4.6287   -1.3310    0.0000 C   0  0  0  0  0  0           0  0  0
    5.3412   -1.7394    0.0000 C   0  0  0  0  0  0           0  0  0
    6.0537   -1.3269    0.0000 C   0  0  0  0  0  0           0  0  0
    3.1986   -0.5041    0.0000 C   0  0  0  0  0  0           0  0  0
    3.1974   -1.3315    0.0000 C   0  0  0  0  0  0           0  0  0
    3.9122   -1.7444    0.0000 N   0  0  0  0  0  0           0  0  0
    4.6258   -0.5005    0.0000 C   0  0  0  0  0  0           0  0  0
    3.9104   -0.0914    0.0000 C   0  0  0  0  0  0           0  0  0
    1.7777   -0.5000    0.0000 C   0  0  0  0  0  0           0  0  0
    1.7724   -1.3232    0.0000 C   0  0  0  0  0  0           0  0  0
    2.4815   -1.7375    0.0000 C   0  0  0  0  0  0           0  0  0
    2.4880   -0.0928    0.0000 C   0  0  0  0  0  0           0  0  0
    2.4750   -2.5625    0.0000 O   0  0  0  0  0  0           0  0  0
    1.0542   -1.7292    0.0000 C   0  0  0  0  0  0           0  0  0
    0.3375   -1.3167    0.0000 O   0  0  0  0  0  0           0  0  0
    1.0500   -2.5542    0.0000 O   0  0  0  0  0  0           0  0  0
    8.9542   -1.4333    0.0000 O   0  0  0  0  0  0           0  0  0
    8.9042   -2.9708    0.0000 O   0  0  0  0  0  0           0  0  0
    2.4833    0.7333    0.0000 C   0  0  0  0  0  0           0  0  0
    1.7667    1.1458    0.0000 C   0  0  0  0  0  0           0  0  0
    1.7805    1.9705    0.0000 C   0  0  0  0  0  0           0  0  0
    2.5007    2.3770    0.0000 O   0  0  0  0  0  0           0  0  0
    1.0728    2.3946    0.0000 O   0  0  0  0  0  0           0  0  0
 14 10  1  0     0  0
  3  4  2  0     0  0
  7  8  1  0     0  0
 15 16  1  0     0  0
 16 17  2  0     0  0
 17 11  1  0     0  0
  8  9  2  0     0  0
 10 18  1  0     0  0
 18 15  2  0     0  0
  9  1  1  0     0  0
 17 19  1  0     0  0
  4  5  1  0     0  0
 16 20  1  0     0  0
  2  3  1  0     0  0
 20 21  1  0     0  0
 10 11  2  0     0  0
 20 22  2  0     0  0
  5  6  2  0     0  0
  5 23  1  0     0  0
 11 12  1  0     0  0
  4 24  1  0     0  0
 12  7  2  0     0  0
 18 25  1  0     0  0
  6  1  1  0     0  0
 25 26  2  0     0  0
  7 13  1  0     0  0
 26 27  1  0     0  0
  1  2  2  0     0  0
 27 28  1  0     0  0
 13 14  2  0     0  0
 27 29  2  0     0  0
M  END
>  <prID>
908

>  <IDDB>
284313

>  <pIC50_HIV_Integrase>
8.22184875

>  <Q>
-2.426232185

>  <Activity_Integrase>
Active_Integrase

NA
NA
NA
NA
$$$$

  Accelrys05311914302D 1   1.00000     0.00000     0

 29 31  0     0  0            999 V2000
    2.6130   -1.3137    0.0000 C   0  0  0  0  0  0           0  0  0
    2.6269   -0.4890    0.0000 C   0  0  0  0  0  0           0  0  0
    3.3471   -0.0825    0.0000 O   0  0  0  0  0  0           0  0  0
    1.9192   -0.0649    0.0000 O   0  0  0  0  0  0           0  0  0
    6.8902   -2.9541    0.0000 C   0  0  0  0  0  0           0  0  0
    6.8891   -3.7815    0.0000 C   0  0  0  0  0  0           0  0  0
    7.6039   -4.1944    0.0000 C   0  0  0  0  0  0           0  0  0
    8.3203   -3.7810    0.0000 C   0  0  0  0  0  0           0  0  0
    8.3175   -2.9505    0.0000 C   0  0  0  0  0  0           0  0  0
    7.6021   -2.5414    0.0000 C   0  0  0  0  0  0           0  0  0
    4.7537   -2.5519    0.0000 C   0  0  0  0  0  0           0  0  0
    5.4662   -2.9602    0.0000 C   0  0  0  0  0  0           0  0  0
    6.1787   -2.5477    0.0000 C   0  0  0  0  0  0           0  0  0
    3.3236   -1.7250    0.0000 C   0  0  0  0  0  0           0  0  0
    3.3224   -2.5523    0.0000 C   0  0  0  0  0  0           0  0  0
    4.0372   -2.9652    0.0000 N   0  0  0  0  0  0           0  0  0
    4.7508   -1.7213    0.0000 C   0  0  0  0  0  0           0  0  0
    4.0354   -1.3122    0.0000 C   0  0  0  0  0  0           0  0  0
    1.9027   -1.7208    0.0000 C   0  0  0  0  0  0           0  0  0
    1.8974   -2.5440    0.0000 C   0  0  0  0  0  0           0  0  0
    2.6065   -2.9584    0.0000 C   0  0  0  0  0  0           0  0  0
    2.6000   -3.7833    0.0000 O   0  0  0  0  0  0           0  0  0
    1.1792   -2.9500    0.0000 C   0  0  0  0  0  0           0  0  0
    0.4625   -2.5375    0.0000 O   0  0  0  0  0  0           0  0  0
    1.1750   -3.7750    0.0000 O   0  0  0  0  0  0           0  0  0
    9.0792   -2.6542    0.0000 O   0  0  0  0  0  0           0  0  0
    9.0292   -4.1917    0.0000 O   0  0  0  0  0  0           0  0  0
    7.5958   -5.0167    0.0000 O   0  0  0  0  0  0           0  0  0
    6.8792   -5.4250    0.0000 C   0  0  0  0  0  0           0  0  0
 15 16  1  0     0  0
 16 11  2  0     0  0
  8  9  1  0     0  0
 11 17  1  0     0  0
  2  3  1  0     0  0
 17 18  2  0     0  0
 18 14  1  0     0  0
  9 10  2  0     0  0
 10  5  1  0     0  0
 19 20  1  0     0  0
  5  6  2  0     0  0
 20 21  2  0     0  0
 21 15  1  0     0  0
 14  1  1  0     0  0
  1 19  2  0     0  0
  1  2  1  0     0  0
 21 22  1  0     0  0
 11 12  1  0     0  0
 20 23  1  0     0  0
  6  7  1  0     0  0
 23 24  1  0     0  0
 12 13  2  0     0  0
 23 25  2  0     0  0
 13  5  1  0     0  0
  9 26  1  0     0  0
  2  4  2  0     0  0
  8 27  1  0     0  0
  7  8  2  0     0  0
  7 28  1  0     0  0
 14 15  2  0     0  0
 28 29  1  0     0  0
M  END
>  <prID>
909

>  <IDDB>
284314

>  <pIC50_HIV_Integrase>
8.15490196

>  <Q>
-2.926683983

>  <Activity_Integrase>
Active_Integrase

NA
NA
NA
NA
$$$$

  Accelrys05311914302D 1   1.00000     0.00000     0

 27 29  0     0  0            999 V2000
    0.7236    0.8334    0.0000 C   0  0  0  0  0  0           0  0  0
    0.7224    0.0060    0.0000 C   0  0  0  0  0  0           0  0  0
    1.4372   -0.4069    0.0000 C   0  0  0  0  0  0           0  0  0
    2.1537    0.0065    0.0000 C   0  0  0  0  0  0           0  0  0
    2.1508    0.8370    0.0000 C   0  0  0  0  0  0           0  0  0
    1.4354    1.2461    0.0000 C   0  0  0  0  0  0           0  0  0
    2.8625   -0.4042    0.0000 C   0  0  0  0  0  0           0  0  0
    7.2562    0.0008    0.0000 O   0  0  0  0  0  0           0  0  0
    4.4062    0.0091    0.0000 C   0  0  0  0  0  0           0  0  0
    5.1187   -0.4034    0.0000 C   0  0  0  0  0  0           0  0  0
    5.8312    0.0050    0.0000 C   0  0  0  0  0  0           0  0  0
    6.5437   -0.4075    0.0000 C   0  0  0  0  0  0           0  0  0
    4.3994    0.8333    0.0000 O   0  0  0  0  0  0           0  0  0
    5.8244    0.8291    0.0000 O   0  0  0  0  0  0           0  0  0
    6.5369   -1.2334    0.0000 O   0  0  0  0  0  0           0  0  0
    3.6872   -0.4060    0.0000 C   0  0  0  0  0  0           0  0  0
    3.9440   -1.1943    0.0000 C   0  0  0  0  0  0           0  0  0
    3.2747   -1.6767    0.0000 N   0  0  3  0  0  0           0  0  0
    2.6054   -1.1943    0.0000 C   0  0  0  0  0  0           0  0  0
    3.2706   -2.4976    0.0000 C   0  0  0  0  0  0           0  0  0
    2.5539   -2.9059    0.0000 C   0  0  0  0  0  0           0  0  0
    2.5516   -3.7315    0.0000 C   0  0  0  0  0  0           0  0  0
    1.8412   -2.4930    0.0000 C   0  0  0  0  0  0           0  0  0
    1.1257   -2.9044    0.0000 C   0  0  0  0  0  0           0  0  0
    1.1274   -3.7331    0.0000 C   0  0  0  0  0  0           0  0  0
    1.8407   -4.1424    0.0000 C   0  0  0  0  0  0           0  0  0
    0.4083   -4.1375    0.0000 F   0  0  0  0  0  0           0  0  0
 11 14  2  0     0  0
  4  7  1  0     0  0
 12 15  2  0     0  0
  3  4  2  0     0  0
  9 16  1  0     0  0
  7 19  2  0     0  0
  4  5  1  0     0  0
 17 16  2  0     0  0
  9 10  1  0     0  0
 18 17  1  0     0  0
 16  7  1  0     0  0
 19 18  1  0     0  0
  2  3  1  0     0  0
 18 20  1  0     0  0
 10 11  1  0     0  0
 20 21  1  0     0  0
  5  6  2  0     0  0
 22 21  2  0     0  0
 11 12  1  0     0  0
 21 23  1  0     0  0
 12  8  1  0     0  0
 23 24  2  0     0  0
  6  1  1  0     0  0
 24 25  1  0     0  0
  9 13  2  0     0  0
 25 26  2  0     0  0
 26 22  1  0     0  0
  1  2  2  0     0  0
 25 27  1  0     0  0
M  END
>  <prID>
910

>  <IDDB>
284378

>  <pIC50_HIV_Integrase>
7.585026652

>  <Q>
-1.540020795

>  <Activity_Integrase>
Active_Integrase

NA
NA
NA
NA
$$$$

  Accelrys05311914302D 1   1.00000     0.00000     0

 27 29  0     0  0            999 V2000
    3.7527   -2.5708    0.0000 C   0  0  0  0  0  0           0  0  0
    3.7516   -3.3982    0.0000 C   0  0  0  0  0  0           0  0  0
    4.4664   -3.8110    0.0000 C   0  0  0  0  0  0           0  0  0
    5.1828   -3.3977    0.0000 C   0  0  0  0  0  0           0  0  0
    5.1800   -2.5672    0.0000 C   0  0  0  0  0  0           0  0  0
    4.4646   -2.1580    0.0000 C   0  0  0  0  0  0           0  0  0
    5.8917   -3.8083    0.0000 C   0  0  0  0  0  0           0  0  0
   10.2854   -3.4034    0.0000 O   0  0  0  0  0  0           0  0  0
    7.4354   -3.3950    0.0000 C   0  0  0  0  0  0           0  0  0
    8.1479   -3.8075    0.0000 C   0  0  0  0  0  0           0  0  0
    8.8604   -3.3992    0.0000 C   0  0  0  0  0  0           0  0  0
    9.5729   -3.8117    0.0000 C   0  0  0  0  0  0           0  0  0
    7.4286   -2.5709    0.0000 O   0  0  0  0  0  0           0  0  0
    8.8536   -2.5750    0.0000 N   0  0  0  0  0  0           0  0  0
    9.5661   -4.6375    0.0000 O   0  0  0  0  0  0           0  0  0
    6.7164   -3.8101    0.0000 C   0  0  0  0  0  0           0  0  0
    6.9732   -4.5984    0.0000 C   0  0  0  0  0  0           0  0  0
    6.3039   -5.0809    0.0000 N   0  0  3  0  0  0           0  0  0
    5.6346   -4.5984    0.0000 C   0  0  0  0  0  0           0  0  0
    6.2997   -5.9018    0.0000 C   0  0  0  0  0  0           0  0  0
    5.5831   -6.3101    0.0000 C   0  0  0  0  0  0           0  0  0
    5.5807   -7.1357    0.0000 C   0  0  0  0  0  0           0  0  0
    4.8704   -5.8971    0.0000 C   0  0  0  0  0  0           0  0  0
    4.1549   -6.3086    0.0000 C   0  0  0  0  0  0           0  0  0
    4.1566   -7.1373    0.0000 C   0  0  0  0  0  0           0  0  0
    4.8699   -7.5465    0.0000 C   0  0  0  0  0  0           0  0  0
    3.4375   -7.5417    0.0000 F   0  0  0  0  0  0           0  0  0
 11 14  2  0     0  0
  4  7  1  0     0  0
 12 15  2  0     0  0
  3  4  2  0     0  0
  9 16  1  0     0  0
  7 19  2  0     0  0
  4  5  1  0     0  0
 17 16  2  0     0  0
  9 10  1  0     0  0
 18 17  1  0     0  0
 16  7  1  0     0  0
 19 18  1  0     0  0
  2  3  1  0     0  0
 18 20  1  0     0  0
 10 11  1  0     0  0
 20 21  1  0     0  0
  5  6  2  0     0  0
 22 21  2  0     0  0
 11 12  1  0     0  0
 21 23  1  0     0  0
 12  8  1  0     0  0
 23 24  2  0     0  0
  6  1  1  0     0  0
 24 25  1  0     0  0
  9 13  2  0     0  0
 25 26  2  0     0  0
 26 22  1  0     0  0
  1  2  2  0     0  0
 25 27  1  0     0  0
M  END
>  <prID>
911

>  <IDDB>
284379

>  <pIC50_HIV_Integrase>
7.356547324

>  <Q>
-2.141850468

>  <Activity_Integrase>
Active_Integrase

NA
NA
NA
NA
$$$$

  Accelrys05311914302D 1   1.00000     0.00000     0

 29 31  0     0  0            999 V2000
   11.7039   -3.3435    0.0000 O   0  0  0  0  0  0           0  0  0
    8.8539   -3.3351    0.0000 C   0  0  0  0  0  0           0  0  0
    9.5664   -3.7476    0.0000 C   0  0  0  0  0  0           0  0  0
   10.2789   -3.3393    0.0000 C   0  0  0  0  0  0           0  0  0
   10.9914   -3.7518    0.0000 C   0  0  0  0  0  0           0  0  0
    8.8471   -2.5110    0.0000 O   0  0  0  0  0  0           0  0  0
   10.2721   -2.5151    0.0000 O   0  0  0  0  0  0           0  0  0
   10.9846   -4.5776    0.0000 O   0  0  0  0  0  0           0  0  0
    6.7164   -3.7476    0.0000 C   0  0  0  0  0  0           0  0  0
    7.4289   -3.3351    0.0000 C   0  0  0  0  0  0           0  0  0
    8.1414   -3.7476    0.0000 C   0  0  0  0  0  0           0  0  0
    3.7527   -2.5083    0.0000 C   0  0  0  0  0  0           0  0  0
    3.7516   -3.3357    0.0000 C   0  0  0  0  0  0           0  0  0
    4.4664   -3.7485    0.0000 C   0  0  0  0  0  0           0  0  0
    5.1828   -3.3352    0.0000 C   0  0  0  0  0  0           0  0  0
    5.1800   -2.5047    0.0000 C   0  0  0  0  0  0           0  0  0
    4.4646   -2.0955    0.0000 C   0  0  0  0  0  0           0  0  0
    5.8917   -3.7458    0.0000 C   0  0  0  0  0  0           0  0  0
    6.9732   -4.5359    0.0000 C   0  0  0  0  0  0           0  0  0
    6.3039   -5.0184    0.0000 N   0  0  3  0  0  0           0  0  0
    5.6346   -4.5359    0.0000 C   0  0  0  0  0  0           0  0  0
    6.2997   -5.8393    0.0000 C   0  0  0  0  0  0           0  0  0
    5.5831   -6.2476    0.0000 C   0  0  0  0  0  0           0  0  0
    5.5807   -7.0732    0.0000 C   0  0  0  0  0  0           0  0  0
    4.8704   -5.8346    0.0000 C   0  0  0  0  0  0           0  0  0
    4.1549   -6.2461    0.0000 C   0  0  0  0  0  0           0  0  0
    4.1566   -7.0748    0.0000 C   0  0  0  0  0  0           0  0  0
    4.8699   -7.4840    0.0000 C   0  0  0  0  0  0           0  0  0
    3.4375   -7.4792    0.0000 F   0  0  0  0  0  0           0  0  0
  5  8  2  0     0  0
 15 16  1  0     0  0
  4  5  1  0     0  0
 16 17  2  0     0  0
 17 12  1  0     0  0
  5  1  1  0     0  0
 15 18  1  0     0  0
  9 10  1  0     0  0
 18 21  2  0     0  0
 19  9  2  0     0  0
 10 11  2  0     0  0
 20 19  1  0     0  0
  9 18  1  0     0  0
 21 20  1  0     0  0
 11  2  1  0     0  0
 20 22  1  0     0  0
  2  6  2  0     0  0
 22 23  1  0     0  0
  3  4  1  0     0  0
 24 23  2  0     0  0
 12 13  2  0     0  0
 23 25  1  0     0  0
  4  7  2  0     0  0
 25 26  2  0     0  0
 13 14  1  0     0  0
 26 27  1  0     0  0
  2  3  1  0     0  0
 27 28  2  0     0  0
 28 24  1  0     0  0
 14 15  2  0     0  0
 27 29  1  0     0  0
M  END
>  <prID>
912

>  <IDDB>
284380

>  <pIC50_HIV_Integrase>
6.468521083

>  <Q>
-1.242839644

>  <Activity_Integrase>
Active_Integrase

NA
NA
NA
NA
$$$$

  Accelrys05311914292D 1   1.00000     0.00000     0

 28 30  0     0  0            999 V2000
    3.4277   -3.1541    0.0000 C   0  0  0  0  0  0           0  0  0
    3.4266   -3.9815    0.0000 C   0  0  0  0  0  0           0  0  0
    4.1414   -4.3944    0.0000 C   0  0  0  0  0  0           0  0  0
    4.8578   -3.9810    0.0000 C   0  0  0  0  0  0           0  0  0
    4.8550   -3.1505    0.0000 C   0  0  0  0  0  0           0  0  0
    4.1396   -2.7414    0.0000 C   0  0  0  0  0  0           0  0  0
    2.7083   -4.3875    0.0000 C   0  0  0  0  0  0           0  0  0
    1.9917   -3.9750    0.0000 C   0  0  0  0  0  0           0  0  0
    1.8996   -3.1533    0.0000 C   0  0  0  0  0  0           0  0  0
    1.0905   -2.9824    0.0000 N   0  0  3  0  0  0           0  0  0
    0.6780   -3.6991    0.0000 C   0  0  0  0  0  0           0  0  0
    1.2322   -4.3128    0.0000 S   0  0  0  0  0  0           0  0  0
    2.4792   -2.5625    0.0000 O   0  0  0  0  0  0           0  0  0
    0.8708   -2.1792    0.0000 C   0  0  0  0  0  0           0  0  0
    0.0708   -1.9625    0.0000 C   0  0  0  0  0  0           0  0  0
   -0.1250   -3.9083    0.0000 S   0  0  0  0  0  0           0  0  0
    5.5667   -4.3917    0.0000 O   0  0  0  0  0  0           0  0  0
    6.2792   -3.9750    0.0000 C   0  0  0  0  0  0           0  0  0
    5.5667   -2.7333    0.0000 O   0  0  0  0  0  0           0  0  0
    6.2792   -3.1458    0.0000 C   0  0  0  0  0  0           0  0  0
    6.9917   -2.7292    0.0000 C   0  0  0  0  0  0           0  0  0
    7.7083   -3.1408    0.0000 C   0  0  0  0  0  0           0  0  0
    8.4203   -2.7249    0.0000 C   0  0  0  0  0  0           0  0  0
    8.4162   -1.8986    0.0000 C   0  0  0  0  0  0           0  0  0
    7.6941   -1.4901    0.0000 C   0  0  0  0  0  0           0  0  0
    6.9850   -1.9084    0.0000 C   0  0  0  0  0  0           0  0  0
   -0.1458   -1.1625    0.0000 O   0  0  0  0  0  0           0  0  0
   -0.5167   -2.5458    0.0000 O   0  0  0  0  0  0           0  0  0
  1  2  1  0     0  0
 10 14  1  0     0  0
  2  7  1  0     0  0
 14 15  1  0     0  0
  3  4  1  0     0  0
 11 16  2  0     0  0
  7  8  2  0     0  0
  4 17  1  0     0  0
  8  9  1  0     0  0
 17 18  1  0     0  0
  5 19  1  0     0  0
  4  5  2  0     0  0
 19 20  1  0     0  0
  2  3  2  0     0  0
 20 21  1  0     0  0
  5  6  1  0     0  0
 21 22  2  0     0  0
  9 10  1  0     0  0
 22 23  1  0     0  0
 10 11  1  0     0  0
 23 24  2  0     0  0
 11 12  1  0     0  0
 24 25  1  0     0  0
 12  8  1  0     0  0
 25 26  2  0     0  0
 26 21  1  0     0  0
  6  1  2  0     0  0
 15 27  1  0     0  0
  9 13  2  0     0  0
 15 28  2  0     0  0
M  END
>  <prID>
913

>  <IDDB>
298346

>  <pIC50_HIV_Integrase>
4.036212173

>  <Q>
2.8006825

>  <Activity_Integrase>
Inactive_Integrase

NA
NA
NA
NA
$$$$

  Accelrys05311914292D 1   1.00000     0.00000     0

 28 31  0     0  0            999 V2000
    1.4125   -2.5042    0.0000 C   0  0  0  0  0  0           0  0  0
    0.8042   -2.0042    0.0000 N   0  0  0  0  0  0           0  0  0
    2.0917   -2.2875    0.0000 C   0  0  0  0  0  0           0  0  0
    1.2167   -3.2667    0.0000 N   0  0  0  0  0  0           0  0  0
    6.3125   -2.0500    0.0000 C   0  0  0  0  0  0           0  0  0
    4.1667   -1.3542    0.0000 C   0  0  0  0  0  0           0  0  0
    3.5667   -1.7917    0.0000 O   0  0  0  0  0  0           0  0  0
    2.2417   -1.5792    0.0000 C   0  0  0  0  0  0           0  0  0
    2.9542   -1.3542    0.0000 C   0  0  0  0  0  0           0  0  0
    6.1542   -1.3167    0.0000 C   0  0  0  0  0  0           0  0  0
    7.0250   -2.2792    0.0000 C   0  0  0  0  0  0           0  0  0
    0.2417   -2.4542    0.0000 C   0  0  0  0  0  0           0  0  0
    2.6292   -2.7667    0.0000 C   0  0  0  0  0  0           0  0  0
    3.9417   -0.6417    0.0000 C   0  0  0  0  0  0           0  0  0
    0.4917   -3.2417    0.0000 C   0  0  0  0  0  0           0  0  0
    4.8792   -1.5792    0.0000 C   0  0  0  0  0  0           0  0  0
    3.1625   -3.2500    0.0000 N   0  0  0  0  0  0           0  0  0
    5.7542   -2.5500    0.0000 C   0  0  0  0  0  0           0  0  0
    5.4417   -1.0792    0.0000 C   0  0  0  0  0  0           0  0  0
    3.1917   -0.6417    0.0000 C   0  0  0  0  0  0           0  0  0
    5.0417   -2.3167    0.0000 C   0  0  0  0  0  0           0  0  0
    7.5792   -1.7792    0.0000 O   0  0  0  0  0  0           0  0  0
    6.7125   -0.8125    0.0000 O   0  0  0  0  0  0           0  0  0
    7.1792   -3.0125    0.0000 O   0  0  0  0  0  0           0  0  0
   -0.4750   -2.2542    0.0000 C   0  0  0  0  0  0           0  0  0
    0.0292   -3.8167    0.0000 C   0  0  0  0  0  0           0  0  0
   -0.6750   -3.6167    0.0000 C   0  0  0  0  0  0           0  0  0
   -0.9333   -2.8375    0.0000 C   0  0  0  0  0  0           0  0  0
  2  1  2  0     0  0
  3  1  1  0     0  0
  4  1  1  0     0  0
  5 18  1  0     0  0
  6  7  1  0     0  0
  7  9  1  0     0  0
  8  3  2  0     0  0
  9  8  1  0     0  0
 10 19  1  0     0  0
 11  5  1  0     0  0
 12  2  1  0     0  0
 13  3  1  0     0  0
 14 20  1  0     0  0
 15  4  1  0     0  0
 16  6  1  0     0  0
 17 13  3  0     0  0
 18 21  2  0     0  0
 19 16  2  0     0  0
 20  9  2  0     0  0
 21 16  1  0     0  0
 22 11  2  0     0  0
 23 10  1  0     0  0
 24 11  1  0     0  0
 25 12  1  0     0  0
 26 15  1  0     0  0
 27 26  2  0     0  0
 28 25  2  0     0  0
 15 12  2  0     0  0
 27 28  1  0     0  0
 14  6  2  0     0  0
 10  5  2  0     0  0
M  END
>  <prID>
914

>  <IDDB>
298970

>  <pIC50_HIV_Integrase>
4.619788758

>  <Q>
-0.835181568

>  <Activity_Integrase>
Inactive_Integrase

NA
NA
NA
NA
$$$$

  Accelrys05311914292D 1   1.00000     0.00000     0

 29 31  0     0  0            999 V2000
   -2.2000    0.4625    0.0000 N   0  0  3  0  0  0           0  0  0
   -2.4833   -0.2875    0.0000 C   0  0  0  0  0  0           0  0  0
   -1.4125    0.4625    0.0000 C   0  0  0  0  0  0           0  0  0
   -1.1625   -0.3000    0.0000 C   0  0  0  0  0  0           0  0  0
   -1.8125   -0.7875    0.0000 S   0  0  0  0  0  0           0  0  0
   -0.4125   -0.6292    0.0000 C   0  0  0  0  0  0           0  0  0
   -2.6125    1.1500    0.0000 C   0  0  0  0  0  0           0  0  0
   -3.2208   -0.6167    0.0000 S   0  0  0  0  0  0           0  0  0
   -3.4125    1.1458    0.0000 C   0  0  0  0  0  0           0  0  0
    1.6292    0.0208    0.0000 C   0  0  0  0  0  0           0  0  0
    3.5542    1.4958    0.0000 C   0  0  0  0  0  0           0  0  0
   -1.0000    1.1500    0.0000 O   0  0  0  0  0  0           0  0  0
    1.5292    0.8333    0.0000 C   0  0  0  0  0  0           0  0  0
    0.2500   -0.1500    0.0000 C   0  0  0  0  0  0           0  0  0
    2.1667    1.3125    0.0000 O   0  0  0  0  0  0           0  0  0
    0.9875   -0.4542    0.0000 C   0  0  0  0  0  0           0  0  0
    2.9167    1.0125    0.0000 C   0  0  0  0  0  0           0  0  0
    4.3000    1.1833    0.0000 C   0  0  0  0  0  0           0  0  0
   -3.8208    0.4500    0.0000 O   0  0  0  0  0  0           0  0  0
    0.7792    1.1458    0.0000 C   0  0  0  0  0  0           0  0  0
    0.1375    0.6500    0.0000 C   0  0  0  0  0  0           0  0  0
    4.4000    0.3958    0.0000 Cl  0  0  0  0  0  0           0  0  0
   -3.8458    1.8208    0.0000 O   0  0  0  0  0  0           0  0  0
    2.3667   -0.2875    0.0000 O   0  0  0  0  0  0           0  0  0
    3.4542    2.3000    0.0000 C   0  0  0  0  0  0           0  0  0
    4.9375    1.6625    0.0000 C   0  0  0  0  0  0           0  0  0
    3.0042    0.1958    0.0000 C   0  0  0  0  0  0           0  0  0
    4.1000    2.7958    0.0000 C   0  0  0  0  0  0           0  0  0
    4.8375    2.4708    0.0000 C   0  0  0  0  0  0           0  0  0
  2  1  1  0     0  0
  3  1  1  0     0  0
  4  3  1  0     0  0
  5  2  1  0     0  0
  6  4  2  0     0  0
  7  1  1  0     0  0
  8  2  2  0     0  0
  9  7  1  0     0  0
 10 16  1  0     0  0
 11 17  1  0     0  0
 12  3  2  0     0  0
 13 20  1  0     0  0
 14  6  1  0     0  0
 15 13  1  0     0  0
 16 14  2  0     0  0
 17 15  1  0     0  0
 18 11  2  0     0  0
 19  9  2  0     0  0
 20 21  2  0     0  0
 21 14  1  0     0  0
 22 18  1  0     0  0
 23  9  1  0     0  0
 24 10  1  0     0  0
 25 11  1  0     0  0
 26 18  1  0     0  0
 27 24  1  0     0  0
 28 25  2  0     0  0
 29 28  1  0     0  0
  4  5  1  0     0  0
 13 10  2  0     0  0
 26 29  2  0     0  0
M  END
>  <prID>
915

>  <IDDB>
299070

>  <pIC50_HIV_Integrase>
4.657577319

>  <Q>
1.8555736

>  <Activity_Integrase>
Inactive_Integrase

NA
NA
NA
NA
$$$$

  Accelrys05311914292D 1   1.00000     0.00000     0

 26 28  0     0  0            999 V2000
   -1.1833    1.4000    0.0000 C   0  0  0  0  0  0           0  0  0
   -1.1833    0.4625    0.0000 C   0  0  0  0  0  0           0  0  0
   -1.9958    1.8708    0.0000 C   0  0  0  0  0  0           0  0  0
   -1.9958   -0.0042    0.0000 N   0  0  3  0  0  0           0  0  0
   -0.3708    1.8708    0.0000 C   0  0  0  0  0  0           0  0  0
   -2.8000    1.4000    0.0000 C   0  0  0  0  0  0           0  0  0
   -2.8000    0.4625    0.0000 C   0  0  0  0  0  0           0  0  0
    0.4375    1.4000    0.0000 N   0  0  0  0  0  0           0  0  0
    1.2500    1.8708    0.0000 C   0  0  0  0  0  0           0  0  0
   -0.3708   -0.0042    0.0000 O   0  0  0  0  0  0           0  0  0
   -0.3708    2.8000    0.0000 O   0  0  0  0  0  0           0  0  0
   -1.9958    2.8000    0.0000 O   0  0  0  0  0  0           0  0  0
    2.0667    1.4000    0.0000 C   0  0  0  0  0  0           0  0  0
   -2.0000   -0.9542    0.0000 C   0  0  0  0  0  0           0  0  0
   -1.2000   -1.4292    0.0000 C   0  0  0  0  0  0           0  0  0
   -0.3958   -0.9792    0.0000 C   0  0  0  0  0  0           0  0  0
   -3.6125    1.8708    0.0000 C   0  0  0  0  0  0           0  0  0
   -3.6125   -0.0042    0.0000 C   0  0  0  0  0  0           0  0  0
    2.0667    0.4708    0.0000 O   0  0  0  0  0  0           0  0  0
    1.2500    2.8208    0.0000 C   0  0  0  0  0  0           0  0  0
    2.8875    1.8708    0.0000 C   0  0  0  0  0  0           0  0  0
    2.8667    0.0125    0.0000 C   0  0  0  0  0  0           0  0  0
   -4.4208    1.4000    0.0000 C   0  0  0  0  0  0           0  0  0
   -4.4208    0.4625    0.0000 C   0  0  0  0  0  0           0  0  0
    2.0667    3.2958    0.0000 C   0  0  0  0  0  0           0  0  0
    2.8875    2.8208    0.0000 C   0  0  0  0  0  0           0  0  0
  2  1  1  0     0  0
  3  1  2  0     0  0
  4  2  1  0     0  0
  5  1  1  0     0  0
  6  3  1  0     0  0
  7  6  1  0     0  0
  8  5  1  0     0  0
  9  8  1  0     0  0
 10  2  2  0     0  0
 11  5  2  0     0  0
 12  3  1  0     0  0
 13  9  2  0     0  0
 14  4  1  0     0  0
 15 14  1  0     0  0
 16 15  2  0     0  0
 17  6  2  0     0  0
 18  7  2  0     0  0
 19 13  1  0     0  0
 20  9  1  0     0  0
 21 13  1  0     0  0
 22 19  1  0     0  0
 23 17  1  0     0  0
 24 23  2  0     0  0
 25 20  2  0     0  0
 26 25  1  0     0  0
  7  4  1  0     0  0
 18 24  1  0     0  0
 26 21  2  0     0  0
M  END
>  <prID>
916

>  <IDDB>
299483

>  <pIC50_HIV_Integrase>
4.602059991

>  <Q>
-0.136547091

>  <Activity_Integrase>
Inactive_Integrase

NA
NA
NA
NA
$$$$

  Accelrys05311914292D 1   1.00000     0.00000     0

 30 32  0     0  0            999 V2000
   -1.1833    0.6625    0.0000 C   0  0  0  0  0  0           0  0  0
   -1.1833   -0.2792    0.0000 C   0  0  0  0  0  0           0  0  0
   -1.9958    1.1333    0.0000 C   0  0  0  0  0  0           0  0  0
    2.0667   -0.2667    0.0000 S   0  0  3  0  0  0           0  0  0
   -1.9958   -0.7500    0.0000 N   0  0  3  0  0  0           0  0  0
   -0.3708    1.1333    0.0000 C   0  0  0  0  0  0           0  0  0
   -2.8000    0.6625    0.0000 C   0  0  0  0  0  0           0  0  0
   -2.8000   -0.2792    0.0000 C   0  0  0  0  0  0           0  0  0
    2.0667    0.6625    0.0000 C   0  0  0  0  0  0           0  0  0
    0.4375    0.6625    0.0000 N   0  0  0  0  0  0           0  0  0
    1.2500    1.1333    0.0000 C   0  0  0  0  0  0           0  0  0
   -0.3708   -0.7500    0.0000 O   0  0  0  0  0  0           0  0  0
    1.1375   -0.2667    0.0000 O   0  0  0  0  0  0           0  0  0
    3.0000   -0.2667    0.0000 O   0  0  0  0  0  0           0  0  0
   -0.3708    2.0625    0.0000 O   0  0  0  0  0  0           0  0  0
    2.0667   -1.1792    0.0000 N   0  0  0  0  0  0           0  0  0
   -1.9958    2.0625    0.0000 O   0  0  0  0  0  0           0  0  0
   -1.9958   -1.6792    0.0000 C   0  0  0  0  0  0           0  0  0
   -3.6125    1.1333    0.0000 C   0  0  0  0  0  0           0  0  0
    2.8875    1.1333    0.0000 C   0  0  0  0  0  0           0  0  0
   -3.6125   -0.7500    0.0000 C   0  0  0  0  0  0           0  0  0
    1.2500    2.0833    0.0000 C   0  0  0  0  0  0           0  0  0
   -1.1958   -2.1375    0.0000 C   0  0  0  0  0  0           0  0  0
    0.4042   -2.1167    0.0000 C   0  0  0  0  0  0           0  0  0
   -4.4208    0.6625    0.0000 C   0  0  0  0  0  0           0  0  0
   -0.3958   -1.6667    0.0000 C   0  0  0  0  0  0           0  0  0
    2.8875    2.0833    0.0000 C   0  0  0  0  0  0           0  0  0
   -4.4208   -0.2792    0.0000 C   0  0  0  0  0  0           0  0  0
    2.0667    2.5500    0.0000 C   0  0  0  0  0  0           0  0  0
    1.2042   -1.6500    0.0000 C   0  0  0  0  0  0           0  0  0
  2  1  1  0     0  0
  3  1  2  0     0  0
  4  9  1  0     0  0
  5  2  1  0     0  0
  6  1  1  0     0  0
  7  3  1  0     0  0
  8  7  1  0     0  0
  9 11  2  0     0  0
 10  6  1  0     0  0
 11 10  1  0     0  0
 12  2  2  0     0  0
 13  4  2  0     0  0
 14  4  2  0     0  0
 15  6  2  0     0  0
 16  4  1  0     0  0
 17  3  1  0     0  0
 18  5  1  0     0  0
 19  7  2  0     0  0
 20  9  1  0     0  0
 21  8  2  0     0  0
 22 11  1  0     0  0
 23 18  1  0     0  0
 24 26  1  0     0  0
 25 19  1  0     0  0
 26 23  1  0     0  0
 27 29  1  0     0  0
 28 25  2  0     0  0
 29 22  2  0     0  0
 30 24  1  0     0  0
  5  8  1  0     0  0
 28 21  1  0     0  0
 27 20  2  0     0  0
M  END
>  <prID>
917

>  <IDDB>
299965

>  <pIC50_HIV_Integrase>
4.886056648

>  <Q>
-3.447401764

>  <Activity_Integrase>
Inactive_Integrase

NA
NA
NA
NA
$$$$

  Accelrys05311914292D 1   1.00000     0.00000     0

 29 31  0     0  0            999 V2000
   -1.1833    0.6625    0.0000 C   0  0  0  0  0  0           0  0  0
   -1.1833   -0.2792    0.0000 C   0  0  0  0  0  0           0  0  0
   -1.9958    1.1333    0.0000 C   0  0  0  0  0  0           0  0  0
    2.0667   -0.2667    0.0000 S   0  0  3  0  0  0           0  0  0
   -1.9958   -0.7500    0.0000 N   0  0  3  0  0  0           0  0  0
   -0.3708    1.1333    0.0000 C   0  0  0  0  0  0           0  0  0
   -2.8000    0.6625    0.0000 C   0  0  0  0  0  0           0  0  0
   -2.8000   -0.2792    0.0000 C   0  0  0  0  0  0           0  0  0
    2.0667    0.6625    0.0000 C   0  0  0  0  0  0           0  0  0
    0.4375    0.6625    0.0000 N   0  0  0  0  0  0           0  0  0
    1.2500    1.1333    0.0000 C   0  0  0  0  0  0           0  0  0
   -0.3708   -0.7500    0.0000 O   0  0  0  0  0  0           0  0  0
    1.1375   -0.2667    0.0000 O   0  0  0  0  0  0           0  0  0
    3.0000   -0.2667    0.0000 O   0  0  0  0  0  0           0  0  0
   -0.3708    2.0625    0.0000 O   0  0  0  0  0  0           0  0  0
    2.0667   -1.1792    0.0000 N   0  0  0  0  0  0           0  0  0
   -1.9958    2.0625    0.0000 O   0  0  0  0  0  0           0  0  0
   -1.9958   -1.6792    0.0000 C   0  0  0  0  0  0           0  0  0
   -3.6125    1.1333    0.0000 C   0  0  0  0  0  0           0  0  0
    2.8875    1.1333    0.0000 C   0  0  0  0  0  0           0  0  0
   -3.6125   -0.7500    0.0000 C   0  0  0  0  0  0           0  0  0
    1.2500    2.0833    0.0000 C   0  0  0  0  0  0           0  0  0
   -1.1958   -2.1375    0.0000 C   0  0  0  0  0  0           0  0  0
   -0.3958   -1.6667    0.0000 C   0  0  0  0  0  0           0  0  0
   -4.4208    0.6625    0.0000 C   0  0  0  0  0  0           0  0  0
    2.8875    2.0833    0.0000 C   0  0  0  0  0  0           0  0  0
   -4.4208   -0.2792    0.0000 C   0  0  0  0  0  0           0  0  0
    2.0667    2.5500    0.0000 C   0  0  0  0  0  0           0  0  0
    0.4042   -2.1167    0.0000 C   0  0  0  0  0  0           0  0  0
  2  1  1  0     0  0
  3  1  2  0     0  0
  4  9  1  0     0  0
  5  2  1  0     0  0
  6  1  1  0     0  0
  7  3  1  0     0  0
  8  7  1  0     0  0
  9 11  2  0     0  0
 10  6  1  0     0  0
 11 10  1  0     0  0
 12  2  2  0     0  0
 13  4  2  0     0  0
 14  4  2  0     0  0
 15  6  2  0     0  0
 16  4  1  0     0  0
 17  3  1  0     0  0
 18  5  1  0     0  0
 19  7  2  0     0  0
 20  9  1  0     0  0
 21  8  2  0     0  0
 22 11  1  0     0  0
 23 18  1  0     0  0
 24 23  1  0     0  0
 25 19  1  0     0  0
 26 28  1  0     0  0
 27 25  2  0     0  0
 28 22  2  0     0  0
 29 24  1  0     0  0
  8  5  1  0     0  0
 21 27  1  0     0  0
 20 26  2  0     0  0
M  END
>  <prID>
918

>  <IDDB>
300942

>  <pIC50_HIV_Integrase>
4.769551079

>  <Q>
-3.190557844

>  <Activity_Integrase>
Inactive_Integrase

NA
NA
NA
NA
$$$$

  Accelrys05311914292D 1   1.00000     0.00000     0

 29 31  0     0  0            999 V2000
   -1.1833    0.6625    0.0000 C   0  0  0  0  0  0           0  0  0
   -1.1833   -0.2792    0.0000 C   0  0  0  0  0  0           0  0  0
   -1.9958   -0.7500    0.0000 N   0  0  3  0  0  0           0  0  0
   -1.9958    1.1333    0.0000 C   0  0  0  0  0  0           0  0  0
    2.0667   -0.2667    0.0000 S   0  0  3  0  0  0           0  0  0
   -0.3708    1.1333    0.0000 C   0  0  0  0  0  0           0  0  0
   -2.8000    0.6625    0.0000 C   0  0  0  0  0  0           0  0  0
   -2.8000   -0.2792    0.0000 C   0  0  0  0  0  0           0  0  0
    2.0667    0.6625    0.0000 C   0  0  0  0  0  0           0  0  0
    0.4375    0.6625    0.0000 N   0  0  0  0  0  0           0  0  0
    1.2500    1.1333    0.0000 C   0  0  0  0  0  0           0  0  0
   -1.9958   -1.6792    0.0000 C   0  0  0  0  0  0           0  0  0
   -0.3708   -0.7500    0.0000 O   0  0  0  0  0  0           0  0  0
    3.0000   -0.2667    0.0000 O   0  0  0  0  0  0           0  0  0
    1.1375   -0.2667    0.0000 O   0  0  0  0  0  0           0  0  0
   -0.3708    2.0625    0.0000 O   0  0  0  0  0  0           0  0  0
    2.0667   -1.1792    0.0000 N   0  0  0  0  0  0           0  0  0
   -1.9958    2.0625    0.0000 O   0  0  0  0  0  0           0  0  0
   -3.6125    1.1333    0.0000 C   0  0  0  0  0  0           0  0  0
    2.8875    1.1333    0.0000 C   0  0  0  0  0  0           0  0  0
   -3.6125   -0.7500    0.0000 C   0  0  0  0  0  0           0  0  0
    1.2500    2.0833    0.0000 C   0  0  0  0  0  0           0  0  0
   -1.1958   -2.1375    0.0000 C   0  0  3  0  0  0           0  0  0
   -0.3958   -1.6667    0.0000 C   0  0  0  0  0  0           0  0  0
   -1.1958   -3.0667    0.0000 C   0  0  0  0  0  0           0  0  0
   -4.4208    0.6625    0.0000 C   0  0  0  0  0  0           0  0  0
    2.8875    2.0833    0.0000 C   0  0  0  0  0  0           0  0  0
   -4.4208   -0.2792    0.0000 C   0  0  0  0  0  0           0  0  0
    2.0667    2.5500    0.0000 C   0  0  0  0  0  0           0  0  0
  2  1  1  0     0  0
  3  2  1  0     0  0
  4  1  2  0     0  0
  5  9  1  0     0  0
  6  1  1  0     0  0
  7  4  1  0     0  0
  8  7  1  0     0  0
  9 11  2  0     0  0
 10  6  1  0     0  0
 11 10  1  0     0  0
 12  3  1  0     0  0
 13  2  2  0     0  0
 14  5  2  0     0  0
 15  5  2  0     0  0
 16  6  2  0     0  0
 17  5  1  0     0  0
 18  4  1  0     0  0
 19  7  2  0     0  0
 20  9  1  0     0  0
 21  8  2  0     0  0
 22 11  1  0     0  0
 23 12  1  0     0  0
 24 23  1  0     0  0
 25 23  1  0     0  0
 26 19  1  0     0  0
 27 29  1  0     0  0
 28 26  2  0     0  0
 29 22  2  0     0  0
  3  8  1  0     0  0
 28 21  1  0     0  0
 27 20  2  0     0  0
M  END
>  <prID>
919

>  <IDDB>
301243

>  <pIC50_HIV_Integrase>
4.795880017

>  <Q>
-2.889617119

>  <Activity_Integrase>
Inactive_Integrase

NA
NA
NA
NA
$$$$

  Accelrys05311914292D 1   1.00000     0.00000     0

 28 30  0     0  0            999 V2000
    3.4277   -3.1541    0.0000 C   0  0  0  0  0  0           0  0  0
    3.4266   -3.9815    0.0000 C   0  0  0  0  0  0           0  0  0
    4.1414   -4.3944    0.0000 C   0  0  0  0  0  0           0  0  0
    4.8578   -3.9810    0.0000 C   0  0  0  0  0  0           0  0  0
    4.8550   -3.1505    0.0000 C   0  0  0  0  0  0           0  0  0
    4.1396   -2.7414    0.0000 C   0  0  0  0  0  0           0  0  0
    2.7083   -4.3875    0.0000 C   0  0  0  0  0  0           0  0  0
    1.9917   -3.9750    0.0000 C   0  0  0  0  0  0           0  0  0
    1.8996   -3.1533    0.0000 C   0  0  0  0  0  0           0  0  0
    1.0905   -2.9824    0.0000 N   0  0  3  0  0  0           0  0  0
    0.6780   -3.6991    0.0000 C   0  0  0  0  0  0           0  0  0
    1.2322   -4.3128    0.0000 S   0  0  0  0  0  0           0  0  0
    2.4792   -2.5625    0.0000 O   0  0  0  0  0  0           0  0  0
    0.8708   -2.1792    0.0000 C   0  0  0  0  0  0           0  0  0
    0.0708   -1.9625    0.0000 C   0  0  0  0  0  0           0  0  0
   -0.1250   -3.9083    0.0000 S   0  0  0  0  0  0           0  0  0
    5.5667   -4.3917    0.0000 O   0  0  0  0  0  0           0  0  0
    6.2792   -3.9750    0.0000 C   0  0  0  0  0  0           0  0  0
    5.5667   -2.7333    0.0000 O   0  0  0  0  0  0           0  0  0
   -0.1458   -1.1625    0.0000 O   0  0  0  0  0  0           0  0  0
   -0.5167   -2.5458    0.0000 O   0  0  0  0  0  0           0  0  0
    5.5625   -1.9083    0.0000 C   0  0  0  0  0  0           0  0  0
    6.9917   -4.3875    0.0000 C   0  0  0  0  0  0           0  0  0
    6.9879   -5.2119    0.0000 C   0  0  0  0  0  0           0  0  0
    7.6996   -5.6243    0.0000 C   0  0  0  0  0  0           0  0  0
    8.4140   -5.2134    0.0000 C   0  0  0  0  0  0           0  0  0
    8.4124   -4.3859    0.0000 C   0  0  0  0  0  0           0  0  0
    7.7001   -3.9772    0.0000 C   0  0  0  0  0  0           0  0  0
  1  2  1  0     0  0
 10 14  1  0     0  0
  2  7  1  0     0  0
 14 15  1  0     0  0
  3  4  1  0     0  0
 11 16  2  0     0  0
  7  8  2  0     0  0
  4 17  1  0     0  0
  8  9  1  0     0  0
 17 18  1  0     0  0
  5 19  1  0     0  0
  4  5  2  0     0  0
 15 20  1  0     0  0
  2  3  2  0     0  0
 15 21  2  0     0  0
  5  6  1  0     0  0
 19 22  1  0     0  0
  9 10  1  0     0  0
 18 23  1  0     0  0
 10 11  1  0     0  0
 23 24  2  0     0  0
 11 12  1  0     0  0
 24 25  1  0     0  0
 12  8  1  0     0  0
 25 26  2  0     0  0
  6  1  2  0     0  0
 26 27  1  0     0  0
  9 13  2  0     0  0
 27 28  2  0     0  0
 28 23  1  0     0  0
M  END
>  <prID>
920

>  <IDDB>
301431

>  <pIC50_HIV_Integrase>
4.26760624

>  <Q>
2.800738691

>  <Activity_Integrase>
Inactive_Integrase

NA
NA
NA
NA
$$$$

  Accelrys05311914292D 1   1.00000     0.00000     0

 25 27  0     0  0            999 V2000
    7.4292   -0.1083    0.0000 C   0  0  0  0  0  0           0  0  0
    7.4292   -0.9333    0.0000 C   0  0  0  0  0  0           0  0  0
    8.1412   -1.3417    0.0000 C   0  0  0  0  0  0           0  0  0
    8.8532   -0.9333    0.0000 C   0  0  0  0  0  0           0  0  0
    8.8532   -0.1083    0.0000 C   0  0  0  0  0  0           0  0  0
    8.1412    0.3083    0.0000 C   0  0  0  0  0  0           0  0  0
    6.7196   -1.3513    0.0000 C   0  0  0  0  0  0           0  0  0
    6.0083   -0.9417    0.0000 N   0  0  0  0  0  0           0  0  0
    5.2917   -1.3542    0.0000 N   0  0  0  0  0  0           0  0  0
    3.8541   -1.3459    0.0000 C   0  0  0  0  0  0           0  0  0
    3.8541   -2.1834    0.0000 C   0  0  0  0  0  0           0  0  0
    3.1333   -2.5959    0.0000 N   0  0  0  0  0  0           0  0  0
    3.1333   -0.9334    0.0000 C   0  0  0  0  0  0           0  0  0
    4.5708   -0.9417    0.0000 C   0  0  0  0  0  0           0  0  0
    2.4208   -1.3459    0.0000 C   0  0  0  0  0  0           0  0  0
    2.4208   -2.1792    0.0000 C   0  0  0  0  0  0           0  0  0
    4.5708   -2.5959    0.0000 O   0  0  0  0  0  0           0  0  0
    4.5708   -0.1125    0.0000 O   0  0  0  0  0  0           0  0  0
    3.1333   -0.1042    0.0000 O   0  0  0  0  0  0           0  0  0
    1.7000   -0.9334    0.0000 C   0  0  0  0  0  0           0  0  0
    1.7000   -2.5959    0.0000 C   0  0  0  0  0  0           0  0  0
    0.9833   -1.3542    0.0000 C   0  0  0  0  0  0           0  0  0
    0.9833   -2.1834    0.0000 C   0  0  0  0  0  0           0  0  0
    6.7125   -2.1750    0.0000 O   0  0  0  0  0  0           0  0  0
    8.1333   -2.1667    0.0000 Cl  0  0  0  0  0  0           0  0  0
  2  3  1  0     0  0
  3  4  2  0     0  0
  4  5  1  0     0  0
  5  6  2  0     0  0
  1  2  2  0     0  0
 11 10  1  0     0  0
 12 11  1  0     0  0
 13 10  2  0     0  0
 14 10  1  0     0  0
 15 13  1  0     0  0
 16 12  1  0     0  0
  9 14  1  0     0  0
 17 11  2  0     0  0
 18 14  2  0     0  0
 19 13  1  0     0  0
 20 15  2  0     0  0
 21 16  2  0     0  0
 22 20  1  0     0  0
 23 21  1  0     0  0
 15 16  1  0     0  0
 22 23  2  0     0  0
  8  7  1  0     0  0
  7  2  1  0     0  0
  1  6  1  0     0  0
  7 24  2  0     0  0
  8  9  1  0     0  0
  3 25  1  0     0  0
M  END
>  <prID>
921

>  <IDDB>
303316

>  <pIC50_HIV_Integrase>
4.585026652

>  <Q>
-2.822373362

>  <Activity_Integrase>
Inactive_Integrase

NA
NA
NA
NA
$$$$

  Accelrys05311914292D 1   1.00000     0.00000     0

 27 29  0     0  0            999 V2000
    0.8542   -0.2667    0.0000 C   0  0  0  0  0  0           0  0  0
    0.4375   -0.9542    0.0000 C   0  0  0  0  0  0           0  0  0
    0.4875    0.3708    0.0000 C   0  0  0  0  0  0           0  0  0
   -0.3333   -0.9375    0.0000 N   0  0  3  0  0  0           0  0  0
    1.6167   -0.2667    0.0000 C   0  0  0  0  0  0           0  0  0
   -0.2708    0.3958    0.0000 C   0  0  0  0  0  0           0  0  0
   -0.7000   -0.2500    0.0000 C   0  0  0  0  0  0           0  0  0
    3.1875   -1.6167    0.0000 C   0  0  0  0  0  0           0  0  0
    2.0042   -0.9500    0.0000 N   0  0  0  0  0  0           0  0  0
    2.7875   -0.9292    0.0000 C   0  0  0  0  0  0           0  0  0
    2.8167   -2.3000    0.0000 C   0  0  0  0  0  0           0  0  0
    0.8042   -1.6792    0.0000 O   0  0  0  0  0  0           0  0  0
    2.0042    0.4125    0.0000 O   0  0  0  0  0  0           0  0  0
    2.0375   -2.3042    0.0000 O   0  0  0  0  0  0           0  0  0
    0.9375    1.0333    0.0000 O   0  0  0  0  0  0           0  0  0
   -0.7208   -1.6000    0.0000 C   0  0  0  0  0  0           0  0  0
    3.2292   -2.9500    0.0000 O   0  0  0  0  0  0           0  0  0
   -0.6625    1.1000    0.0000 C   0  0  0  0  0  0           0  0  0
   -1.4833   -0.2500    0.0000 C   0  0  0  0  0  0           0  0  0
    3.9667   -1.6167    0.0000 C   0  0  0  0  0  0           0  0  0
    3.1792   -0.2792    0.0000 C   0  0  0  0  0  0           0  0  0
    4.0167   -2.9167    0.0000 C   0  0  0  0  0  0           0  0  0
   -0.3500   -2.2667    0.0000 C   0  0  0  0  0  0           0  0  0
   -1.4458    1.1208    0.0000 C   0  0  0  0  0  0           0  0  0
    4.3500   -0.9292    0.0000 C   0  0  0  0  0  0           0  0  0
   -1.8458    0.4333    0.0000 C   0  0  0  0  0  0           0  0  0
    3.9667   -0.2792    0.0000 C   0  0  0  0  0  0           0  0  0
  2  1  1  0     0  0
  3  1  2  0     0  0
  4  2  1  0     0  0
  5  1  1  0     0  0
  6  3  1  0     0  0
  7  6  1  0     0  0
  8 10  2  0     0  0
  9  5  1  0     0  0
 10  9  1  0     0  0
 11  8  1  0     0  0
 12  2  2  0     0  0
 13  5  2  0     0  0
 14 11  2  0     0  0
 15  3  1  0     0  0
 16  4  1  0     0  0
 17 11  1  0     0  0
 18  6  2  0     0  0
 19  7  2  0     0  0
 20  8  1  0     0  0
 21 10  1  0     0  0
 22 17  1  0     0  0
 23 16  1  0     0  0
 24 18  1  0     0  0
 25 27  1  0     0  0
 26 24  2  0     0  0
 27 21  2  0     0  0
  7  4  1  0     0  0
 19 26  1  0     0  0
 20 25  2  0     0  0
M  END
>  <prID>
922

>  <IDDB>
309600

>  <pIC50_HIV_Integrase>
5.022276395

>  <Q>
-0.921226629

>  <Activity_Integrase>
Inactive_Integrase

NA
NA
NA
NA
$$$$

  Accelrys05311914292D 1   1.00000     0.00000     0

 30 33  0     0  0            999 V2000
    3.9292   -2.6542    0.0000 C   0  0  0  0  0  0           0  0  0
    4.0042   -3.4000    0.0000 N   0  0  0  0  0  0           0  0  0
   -1.9208   -1.5167    0.0000 N   0  3  0  0  0  0           0  0  0
    3.2792   -2.2792    0.0000 C   0  0  0  0  0  0           0  0  0
    4.6167   -2.3500    0.0000 S   0  0  0  0  0  0           0  0  0
   -1.9208   -2.2667    0.0000 C   0  0  0  0  0  0           0  0  0
    4.7417   -3.5542    0.0000 C   0  0  0  0  0  0           0  0  0
    5.1167   -2.9042    0.0000 C   0  0  0  0  0  0           0  0  0
    3.2792   -1.5292    0.0000 C   0  0  0  0  0  0           0  0  0
    2.6292   -2.6500    0.0000 C   0  0  0  0  0  0           0  0  0
    0.6792   -2.2750    0.0000 C   0  0  0  0  0  0           0  0  0
   -1.2708   -1.1417    0.0000 O   0  5  0  0  0  0           0  0  0
   -1.2708   -2.6500    0.0000 C   0  0  0  0  0  0           0  0  0
   -2.5708   -1.1417    0.0000 O   0  0  0  0  0  0           0  0  0
    1.3292   -2.6500    0.0000 N   0  0  0  0  0  0           0  0  0
    1.9792   -2.2750    0.0000 C   0  0  0  0  0  0           0  0  0
   -0.6208   -2.2750    0.0000 O   0  0  0  0  0  0           0  0  0
    0.6792   -1.5250    0.0000 O   0  0  0  0  0  0           0  0  0
    2.6292   -1.1500    0.0000 C   0  0  0  0  0  0           0  0  0
    0.0292   -2.6500    0.0000 C   0  0  0  0  0  0           0  0  0
    1.9792   -1.5250    0.0000 C   0  0  0  0  0  0           0  0  0
    3.9292   -1.1542    0.0000 O   0  0  0  0  0  0           0  0  0
   -2.5708   -2.6500    0.0000 C   0  0  0  0  0  0           0  0  0
    5.1167   -4.2042    0.0000 C   0  0  0  0  0  0           0  0  0
    5.8667   -2.9042    0.0000 C   0  0  0  0  0  0           0  0  0
   -1.2708   -3.4042    0.0000 C   0  0  0  0  0  0           0  0  0
   -2.5708   -3.4042    0.0000 C   0  0  0  0  0  0           0  0  0
    6.2417   -3.5542    0.0000 C   0  0  0  0  0  0           0  0  0
    5.8667   -4.2042    0.0000 C   0  0  0  0  0  0           0  0  0
   -1.9208   -3.7792    0.0000 C   0  0  0  0  0  0           0  0  0
  2  1  2  0     0  0
  3  6  1  0     0  0
  4  1  1  0     0  0
  5  1  1  0     0  0
  6 13  1  0     0  0
  7  2  1  0     0  0
  8  5  1  0     0  0
  9  4  1  0     0  0
 10  4  2  0     0  0
 11 15  1  0     0  0
 12  3  1  0     0  0
 13 17  1  0     0  0
 14  3  2  0     0  0
 15 16  1  0     0  0
 16 10  1  0     0  0
 17 20  1  0     0  0
 18 11  2  0     0  0
 19  9  2  0     0  0
 20 11  1  0     0  0
 21 16  2  0     0  0
 22  9  1  0     0  0
 23  6  2  0     0  0
 24  7  1  0     0  0
 25  8  1  0     0  0
 26 13  2  0     0  0
 27 30  2  0     0  0
 28 25  2  0     0  0
 29 24  2  0     0  0
 30 26  1  0     0  0
  8  7  2  0     0  0
 21 19  1  0     0  0
 28 29  1  0     0  0
 27 23  1  0     0  0
M  CHG  2   3   1  12  -1
M  END
>  <prID>
923

>  <IDDB>
313372

>  <pIC50_HIV_Integrase>
4.096910013

>  <Q>
0.212704847

>  <Activity_Integrase>
Inactive_Integrase

NA
NA
NA
NA
$$$$

  Accelrys05311914292D 1   1.00000     0.00000     0

 27 29  0     0  0            999 V2000
    1.2000    1.3125    0.0000 C   0  0  0  0  0  0           0  0  0
    1.7792   -0.4500    0.0000 N   0  0  3  0  0  0           0  0  0
    2.3500    1.3125    0.0000 C   0  0  0  0  0  0           0  0  0
    2.7500    0.2625    0.0000 C   0  0  0  0  0  0           0  0  0
    0.8542    0.1833    0.0000 C   0  0  3  0  0  0           0  0  0
    0.6292    2.3125    0.0000 C   0  0  0  0  0  0           0  0  0
    1.7792   -1.6000    0.0000 C   0  0  0  0  0  0           0  0  0
   -0.2708   -0.0500    0.0000 C   0  0  0  0  0  0           0  0  0
    2.7792   -2.1792    0.0000 C   0  0  0  0  0  0           0  0  0
    3.8792   -0.0500    0.0000 O   0  0  0  0  0  0           0  0  0
   -0.5208    2.3125    0.0000 C   0  0  0  0  0  0           0  0  0
    1.2292    3.3458    0.0000 O   0  0  0  0  0  0           0  0  0
    3.0042    2.2833    0.0000 O   0  0  0  0  0  0           0  0  0
    3.8000   -1.5667    0.0000 O   0  0  0  0  0  0           0  0  0
   -1.0458    0.7708    0.0000 C   0  0  0  0  0  0           0  0  0
   -0.6125   -1.2000    0.0000 C   0  0  0  0  0  0           0  0  0
   -1.1500    1.3458    0.0000 C   0  0  0  0  0  0           0  0  0
   -1.1000    3.3583    0.0000 C   0  0  0  0  0  0           0  0  0
   -2.9208    2.3958    0.0000 C   0  0  0  0  0  0           0  0  0
    2.7167   -3.3292    0.0000 O   0  0  0  0  0  0           0  0  0
   -2.3000    3.3583    0.0000 C   0  0  0  0  0  0           0  0  0
   -2.3458    1.3458    0.0000 C   0  0  0  0  0  0           0  0  0
   -1.7333   -1.4167    0.0000 C   0  0  0  0  0  0           0  0  0
   -2.2333    0.5125    0.0000 C   0  0  0  0  0  0           0  0  0
   -2.5208   -0.6500    0.0000 C   0  0  0  0  0  0           0  0  0
   -4.0833    2.4708    0.0000 Cl  0  0  0  0  0  0           0  0  0
   -3.6125   -1.0167    0.0000 C   0  0  0  0  0  0           0  0  0
  2  5  1  0     0  0
  3  1  2  0     0  0
  4  3  1  0     0  0
  5  1  1  0     0  0
  6  1  1  0     0  0
  7  2  1  0     0  0
  8  5  1  0     0  0
  9  7  1  0     0  0
 10  4  2  0     0  0
 11  6  1  0     0  0
 12  6  2  0     0  0
 13  3  1  0     0  0
 14  9  2  0     0  0
 15  8  2  0     0  0
 16  8  1  0     0  0
 17 11  2  0     0  0
 18 11  1  0     0  0
 19 21  1  0     0  0
 20  9  1  0     0  0
 21 18  2  0     0  0
 22 17  1  0     0  0
 23 16  2  0     0  0
 24 15  1  0     0  0
 25 23  1  0     0  0
 26 19  1  0     0  0
 27 25  1  0     0  0
  4  2  1  0     0  0
 19 22  2  0     0  0
 24 25  2  0     0  0
M  END
>  <prID>
924

>  <IDDB>
314961

>  <pIC50_HIV_Integrase>
4.161150909

>  <Q>
-1.747169529

>  <Activity_Integrase>
Inactive_Integrase

NA
NA
NA
NA
$$$$

  Accelrys05311914292D 1   1.00000     0.00000     0

 31 34  0     0  0            999 V2000
    2.7000   -3.1542    0.0000 N   0  0  3  0  0  0           0  0  0
    1.6250   -2.3667    0.0000 C   0  0  0  0  0  0           0  0  0
    2.9542   -2.3667    0.0000 C   0  0  0  0  0  0           0  0  0
    2.2875   -1.8792    0.0000 C   0  0  0  0  0  0           0  0  0
    1.8750   -3.1542    0.0000 C   0  0  3  0  0  0           0  0  0
    3.1875   -3.8167    0.0000 C   0  0  0  0  0  0           0  0  0
    0.8417   -2.1125    0.0000 C   0  0  0  0  0  0           0  0  0
    2.9292   -4.6042    0.0000 N   0  0  0  0  0  0           0  0  0
    4.0125   -3.8167    0.0000 S   0  0  0  0  0  0           0  0  0
    1.3917   -3.8167    0.0000 C   0  0  0  0  0  0           0  0  0
    3.7417   -2.1125    0.0000 O   0  0  0  0  0  0           0  0  0
    0.6667   -1.3042    0.0000 C   0  0  0  0  0  0           0  0  0
    3.6000   -5.0917    0.0000 C   0  0  0  0  0  0           0  0  0
    0.2250   -2.6667    0.0000 O   0  0  0  0  0  0           0  0  0
    4.2667   -4.6042    0.0000 C   0  0  0  0  0  0           0  0  0
    2.2875   -1.0542    0.0000 O   0  0  0  0  0  0           0  0  0
    0.5667   -3.7292    0.0000 C   0  0  0  0  0  0           0  0  0
    1.7250   -4.5667    0.0000 C   0  0  0  0  0  0           0  0  0
    1.2792   -0.7542    0.0000 C   0  0  0  0  0  0           0  0  0
   -0.1125   -1.0542    0.0000 C   0  0  0  0  0  0           0  0  0
    0.4167   -5.1500    0.0000 C   0  0  0  0  0  0           0  0  0
    0.3250    0.3083    0.0000 C   0  0  0  0  0  0           0  0  0
    1.1125    0.0500    0.0000 C   0  0  0  0  0  0           0  0  0
    0.0792   -4.3917    0.0000 C   0  0  0  0  0  0           0  0  0
   -0.2875   -0.2500    0.0000 C   0  0  0  0  0  0           0  0  0
    1.2417   -5.2292    0.0000 C   0  0  0  0  0  0           0  0  0
   -0.0708   -5.8167    0.0000 O   0  0  0  0  0  0           0  0  0
    0.1542    1.1125    0.0000 O   0  0  0  0  0  0           0  0  0
    0.7667    1.6708    0.0000 C   0  0  0  0  0  0           0  0  0
   -0.8875   -5.7292    0.0000 C   0  0  0  0  0  0           0  0  0
    0.5917    2.4708    0.0000 C   0  0  0  0  0  0           0  0  0
  2  5  1  0     0  0
  3  1  1  0     0  0
  4  3  1  0     0  0
  5  1  1  0     0  0
  6  1  1  0     0  0
  7  2  1  0     0  0
  8  6  2  0     0  0
  9  6  1  0     0  0
 10  5  1  0     0  0
 11  3  2  0     0  0
 12  7  1  0     0  0
 13  8  1  0     0  0
 14  7  2  0     0  0
 15  9  1  0     0  0
 16  4  1  0     0  0
 17 10  2  0     0  0
 18 10  1  0     0  0
 19 12  2  0     0  0
 20 12  1  0     0  0
 21 26  1  0     0  0
 22 25  1  0     0  0
 23 19  1  0     0  0
 24 17  1  0     0  0
 25 20  2  0     0  0
 26 18  2  0     0  0
 27 21  1  0     0  0
 28 22  1  0     0  0
 29 28  1  0     0  0
 30 27  1  0     0  0
 31 29  1  0     0  0
  4  2  2  0     0  0
 13 15  2  0     0  0
 24 21  2  0     0  0
 23 22  2  0     0  0
M  END
>  <prID>
925

>  <IDDB>
325404

>  <pIC50_HIV_Integrase>
4.045757491

>  <Q>
0.32832369

>  <Activity_Integrase>
Inactive_Integrase

NA
NA
NA
NA
$$$$

  Accelrys05311914292D 1   1.00000     0.00000     0

 32 35  0     0  0            999 V2000
    2.7750   -6.2791    0.0000 C   0  0  0  0  0  0           0  0  0
    3.6000   -6.2791    0.0000 C   0  0  0  0  0  0           0  0  0
    3.8568   -7.0633    0.0000 C   0  0  0  0  0  0           0  0  0
    3.1875   -7.5500    0.0000 C   0  0  0  0  0  0           0  0  0
    2.5224   -7.0633    0.0000 O   0  0  0  0  0  0           0  0  0
    7.1452   -9.8233    0.0000 N   0  0  3  0  0  0           0  0  0
    7.1452  -10.6483    0.0000 C   0  0  0  0  0  0           0  0  0
    7.8572  -11.0567    0.0000 C   0  0  0  0  0  0           0  0  0
    8.5692  -10.6483    0.0000 O   0  0  0  0  0  0           0  0  0
    8.5692   -9.8233    0.0000 C   0  0  0  0  0  0           0  0  0
    7.8572   -9.4067    0.0000 C   0  0  0  0  0  0           0  0  0
    5.8340   -9.8357    0.0000 C   0  0  0  0  0  0           0  0  0
    6.3989   -9.4851    0.0000 C   0  0  0  0  0  0           0  0  0
    3.5460   -9.9090    0.0000 C   0  0  0  0  0  0           0  0  0
    2.8271   -9.4994    0.0000 C   0  0  0  0  0  0           0  0  0
    2.1151   -9.9172    0.0000 C   0  0  0  0  0  0           0  0  0
    2.1208  -10.7443    0.0000 C   0  0  0  0  0  0           0  0  0
    2.8444  -11.1519    0.0000 C   0  0  0  0  0  0           0  0  0
    3.5534  -10.7318    0.0000 C   0  0  0  0  0  0           0  0  0
    4.2644   -9.4878    0.0000 C   0  0  3  0  0  0           0  0  0
    5.0899   -9.4507    0.0000 N   0  0  3  0  0  0           0  0  0
    3.9705   -8.7213    0.0000 C   0  0  0  0  0  0           0  0  0
    5.3048   -8.6515    0.0000 C   0  0  0  0  0  0           0  0  0
    4.6122   -8.2048    0.0000 C   0  0  0  0  0  0           0  0  0
    5.9888   -8.3692    0.0000 O   0  0  0  0  0  0           0  0  0
    4.6178   -7.3384    0.0000 O   0  0  0  0  0  0           0  0  0
    3.2140   -8.3777    0.0000 C   0  0  0  0  0  0           0  0  0
    2.5283   -8.7724    0.0000 O   0  0  0  0  0  0           0  0  0
    4.2625  -11.1417    0.0000 O   0  0  0  0  0  0           0  0  0
    1.4000  -11.1500    0.0000 O   0  0  0  0  0  0           0  0  0
    0.6833  -10.7375    0.0000 C   0  0  0  0  0  0           0  0  0
    4.9750  -10.7250    0.0000 C   0  0  0  0  0  0           0  0  0
  4  5  1  0     0  0
 16 17  2  0     0  0
  5  1  1  0     0  0
 17 18  1  0     0  0
  6 11  1  0     0  0
 18 19  2  0     0  0
 19 14  1  0     0  0
  7  8  1  0     0  0
 14 20  1  0     0  0
  8  9  1  0     0  0
 21 12  1  0     0  0
 22 20  1  0     0  0
  9 10  1  0     0  0
 10 11  1  0     0  0
  6  7  1  0     0  0
 20 21  1  0     0  0
 21 23  1  0     0  0
 23 24  1  0     0  0
 24 22  2  0     0  0
  1  2  2  0     0  0
 23 25  2  0     0  0
 12 13  1  0     0  0
 24 26  1  0     0  0
 13  6  1  0     0  0
 22 27  1  0     0  0
 27  4  1  0     0  0
 27 28  2  0     0  0
  2  3  1  0     0  0
 19 29  1  0     0  0
 14 15  2  0     0  0
 17 30  1  0     0  0
  3  4  2  0     0  0
 30 31  1  0     0  0
 15 16  1  0     0  0
 29 32  1  0     0  0
M  END
>  <prID>
926

>  <IDDB>
327231

>  <pIC50_HIV_Integrase>
3.403402904

>  <Q>
-1.722764902

>  <Activity_Integrase>
Inactive_Integrase

NA
NA
NA
NA
$$$$

  Accelrys05311914292D 1   1.00000     0.00000     0

 32 35  0     0  0            999 V2000
    1.9920   -6.9710    0.0000 C   0  0  0  0  0  0           0  0  0
    1.5824   -7.6899    0.0000 C   0  0  0  0  0  0           0  0  0
    2.0001   -8.4019    0.0000 C   0  0  0  0  0  0           0  0  0
    2.8272   -8.3963    0.0000 C   0  0  0  0  0  0           0  0  0
    3.2349   -7.6727    0.0000 C   0  0  0  0  0  0           0  0  0
    2.8148   -6.9636    0.0000 C   0  0  0  0  0  0           0  0  0
    3.2182   -9.1134    0.0000 C   0  0  0  0  0  0           0  0  0
    7.3488   -8.3781    0.0000 N   0  0  3  0  0  0           0  0  0
    7.7637   -9.0912    0.0000 C   0  0  0  0  0  0           0  0  0
    8.5844   -9.0861    0.0000 C   0  0  0  0  0  0           0  0  0
    8.9945   -8.3751    0.0000 N   0  0  0  0  0  0           0  0  0
    8.5796   -7.6620    0.0000 C   0  0  0  0  0  0           0  0  0
    7.7547   -7.6599    0.0000 C   0  0  0  0  0  0           0  0  0
    6.2217   -9.0482    0.0000 C   0  0  0  0  0  0           0  0  0
    6.4878   -8.3694    0.0000 C   0  0  0  0  0  0           0  0  0
    4.7157  -10.4101    0.0000 C   0  0  0  0  0  0           0  0  0
    3.9964  -10.8190    0.0000 C   0  0  0  0  0  0           0  0  0
    3.9920  -11.6445    0.0000 C   0  0  0  0  0  0           0  0  0
    4.7060  -12.0620    0.0000 C   0  0  0  0  0  0           0  0  0
    5.4260  -11.6480    0.0000 C   0  0  0  0  0  0           0  0  0
    5.4269  -10.8239    0.0000 C   0  0  0  0  0  0           0  0  0
    4.7204   -9.5773    0.0000 C   0  0  3  0  0  0           0  0  0
    5.3849   -9.0895    0.0000 N   0  0  3  0  0  0           0  0  0
    4.0490   -9.1044    0.0000 C   0  0  0  0  0  0           0  0  0
    5.1200   -8.3055    0.0000 C   0  0  0  0  0  0           0  0  0
    4.2959   -8.3185    0.0000 C   0  0  0  0  0  0           0  0  0
    5.5321   -7.6909    0.0000 O   0  0  0  0  0  0           0  0  0
    3.8195   -7.5949    0.0000 O   0  0  0  0  0  0           0  0  0
    2.7636   -9.7610    0.0000 O   0  0  0  0  0  0           0  0  0
    6.1414  -10.4236    0.0000 F   0  0  0  0  0  0           0  0  0
    1.5750   -6.2542    0.0000 O   0  0  0  0  0  0           0  0  0
    0.7500   -6.2542    0.0000 C   0  0  0  0  0  0           0  0  0
  3  4  2  0     0  0
 16 17  2  0     0  0
 17 18  1  0     0  0
  4  5  1  0     0  0
 18 19  2  0     0  0
  2  3  1  0     0  0
 19 20  1  0     0  0
  5  6  2  0     0  0
 20 21  2  0     0  0
 21 16  1  0     0  0
  6  1  1  0     0  0
 16 22  1  0     0  0
  8 13  1  0     0  0
 23 14  1  0     0  0
 24 22  1  0     0  0
  9 10  1  0     0  0
 10 11  1  0     0  0
 11 12  1  0     0  0
 22 23  1  0     0  0
 23 25  1  0     0  0
 25 26  1  0     0  0
 26 24  2  0     0  0
 12 13  1  0     0  0
 25 27  2  0     0  0
  1  2  2  0     0  0
 26 28  1  0     0  0
 24  7  1  0     0  0
  4  7  1  0     0  0
  7 29  2  0     0  0
 14 15  1  0     0  0
 21 30  1  0     0  0
 15  8  1  0     0  0
  1 31  1  0     0  0
  8  9  1  0     0  0
 31 32  1  0     0  0
M  END
>  <prID>
927

>  <IDDB>
329670

>  <pIC50_HIV_Integrase>
3.200659451

>  <Q>
-3.711091154

>  <Activity_Integrase>
Inactive_Integrase

NA
NA
NA
NA
$$$$

  Accelrys05311914292D 1   1.00000     0.00000     0

 29 31  0     0  0            999 V2000
    0.7917    0.5250    0.0000 N   0  0  3  0  0  0           0  0  0
    0.5417   -0.2542    0.0000 C   0  0  0  0  0  0           0  0  0
    1.6167    0.5250    0.0000 C   0  0  0  0  0  0           0  0  0
    1.8750   -0.2542    0.0000 C   0  0  0  0  0  0           0  0  0
    1.2125   -0.7417    0.0000 S   0  0  0  0  0  0           0  0  0
    2.5917   -0.6667    0.0000 C   0  0  0  0  0  0           0  0  0
    0.3042    1.1958    0.0000 C   0  0  0  0  0  0           0  0  0
   -0.1833   -0.6667    0.0000 S   0  0  0  0  0  0           0  0  0
    4.6417   -1.3875    0.0000 C   0  0  0  0  0  0           0  0  0
   -0.5208    1.2000    0.0000 C   0  0  0  0  0  0           0  0  0
    6.2917   -2.8167    0.0000 C   0  0  0  0  0  0           0  0  0
    2.0292    1.2458    0.0000 O   0  0  0  0  0  0           0  0  0
    3.4167   -0.6667    0.0000 C   0  0  0  0  0  0           0  0  0
    5.0542   -2.1042    0.0000 O   0  0  0  0  0  0           0  0  0
    3.8250   -1.3792    0.0000 C   0  0  0  0  0  0           0  0  0
    5.0625   -0.6750    0.0000 C   0  0  0  0  0  0           0  0  0
    5.8792   -2.1000    0.0000 C   0  0  0  0  0  0           0  0  0
    5.8792   -3.5292    0.0000 C   0  0  0  0  0  0           0  0  0
   -0.9458    0.4875    0.0000 O   0  0  0  0  0  0           0  0  0
    4.6542    0.0458    0.0000 C   0  0  0  0  0  0           0  0  0
    3.8250    0.0458    0.0000 C   0  0  0  0  0  0           0  0  0
    5.0542   -3.5250    0.0000 F   0  0  0  0  0  0           0  0  0
   -0.9250    1.9208    0.0000 O   0  0  0  0  0  0           0  0  0
    5.8875   -0.6792    0.0000 O   0  0  0  0  0  0           0  0  0
    7.1167   -2.8125    0.0000 C   0  0  0  0  0  0           0  0  0
    6.2917   -4.2417    0.0000 C   0  0  0  0  0  0           0  0  0
    6.3000    0.0333    0.0000 C   0  0  0  0  0  0           0  0  0
    7.5292   -3.5292    0.0000 C   0  0  0  0  0  0           0  0  0
    7.1167   -4.2417    0.0000 C   0  0  0  0  0  0           0  0  0
  2  1  1  0     0  0
  3  1  1  0     0  0
  4  3  1  0     0  0
  5  2  1  0     0  0
  6  4  2  0     0  0
  7  1  1  0     0  0
  8  2  2  0     0  0
  9 15  1  0     0  0
 10  7  1  0     0  0
 11 17  1  0     0  0
 12  3  2  0     0  0
 13  6  1  0     0  0
 14  9  1  0     0  0
 15 13  2  0     0  0
 16 20  1  0     0  0
 17 14  1  0     0  0
 18 11  2  0     0  0
 19 10  2  0     0  0
 20 21  2  0     0  0
 21 13  1  0     0  0
 22 18  1  0     0  0
 23 10  1  0     0  0
 24 16  1  0     0  0
 25 11  1  0     0  0
 26 18  1  0     0  0
 27 24  1  0     0  0
 28 25  2  0     0  0
 29 28  1  0     0  0
  5  4  1  0     0  0
  9 16  2  0     0  0
 26 29  2  0     0  0
M  END
>  <prID>
928

>  <IDDB>
332207

>  <pIC50_HIV_Integrase>
4.102372909

>  <Q>
0.370356757

>  <Activity_Integrase>
Inactive_Integrase

NA
NA
NA
NA
$$$$

  Accelrys05311914292D 1   1.00000     0.00000     0

 32 35  0     0  0            999 V2000
    0.3152   -1.3500    0.0000 C   0  0  0  0  0  0           0  0  0
    0.3141   -2.1773    0.0000 C   0  0  0  0  0  0           0  0  0
    1.0289   -2.5902    0.0000 C   0  0  0  0  0  0           0  0  0
    1.7453   -2.1769    0.0000 C   0  0  0  0  0  0           0  0  0
    1.7425   -1.3463    0.0000 C   0  0  0  0  0  0           0  0  0
    1.0271   -0.9372    0.0000 C   0  0  0  0  0  0           0  0  0
    2.9125   -2.7125    0.0000 C   0  0  0  0  0  0           0  0  0
    9.1277   -2.5208    0.0000 C   0  0  0  0  0  0           0  0  0
    9.1266   -3.3482    0.0000 C   0  0  0  0  0  0           0  0  0
    9.8414   -3.7610    0.0000 C   0  0  0  0  0  0           0  0  0
   10.5578   -3.3477    0.0000 C   0  0  0  0  0  0           0  0  0
   10.5550   -2.5172    0.0000 C   0  0  0  0  0  0           0  0  0
    9.8396   -2.1080    0.0000 C   0  0  0  0  0  0           0  0  0
    6.9912   -2.1185    0.0000 C   0  0  0  0  0  0           0  0  0
    7.7037   -2.5269    0.0000 C   0  0  0  0  0  0           0  0  0
    8.4162   -2.1144    0.0000 C   0  0  0  0  0  0           0  0  0
    5.5611   -1.2916    0.0000 C   0  0  0  0  0  0           0  0  0
    5.5599   -2.1190    0.0000 C   0  0  0  0  0  0           0  0  0
    6.2747   -2.5319    0.0000 N   0  0  0  0  0  0           0  0  0
    6.9883   -1.2880    0.0000 C   0  0  0  0  0  0           0  0  0
    6.2729   -0.8789    0.0000 C   0  0  0  0  0  0           0  0  0
    4.1319   -1.2916    0.0000 C   0  0  0  0  0  0           0  0  0
    4.1307   -2.1190    0.0000 C   0  0  0  0  0  0           0  0  0
    4.8456   -2.5319    0.0000 C   0  0  0  0  0  0           0  0  0
    4.8438   -0.8789    0.0000 C   0  0  0  0  0  0           0  0  0
   11.2667   -2.1000    0.0000 O   0  0  0  0  0  0           0  0  0
   11.2667   -3.7583    0.0000 O   0  0  0  0  0  0           0  0  0
    4.8375   -3.3542    0.0000 O   0  0  0  0  0  0           0  0  0
    2.9083   -3.5375    0.0000 O   0  0  0  0  0  0           0  0  0
    2.4542   -0.9292    0.0000 N   0  3  0  0  0  0           0  0  0
    2.4500   -0.1042    0.0000 O   0  0  0  0  0  0           0  0  0
    3.1667   -1.3417    0.0000 O   0  5  0  0  0  0           0  0  0
 16  8  1  0     0  0
  8  9  2  0     0  0
 17 18  2  0     0  0
  4  5  1  0     0  0
 18 19  1  0     0  0
 19 14  2  0     0  0
  9 10  1  0     0  0
 14 20  1  0     0  0
  2  3  1  0     0  0
 20 21  2  0     0  0
 21 17  1  0     0  0
 10 11  2  0     0  0
  5  6  2  0     0  0
 22 23  1  0     0  0
 11 12  1  0     0  0
 23 24  2  0     0  0
 24 18  1  0     0  0
  6  1  1  0     0  0
 17 25  1  0     0  0
 25 22  2  0     0  0
 12 13  2  0     0  0
 12 26  1  0     0  0
 13  8  1  0     0  0
 11 27  1  0     0  0
  1  2  2  0     0  0
 24 28  1  0     0  0
 23  7  1  0     0  0
  4  7  1  0     0  0
  7 29  2  0     0  0
 14 15  1  0     0  0
  5 30  1  0     0  0
  3  4  2  0     0  0
 30 31  2  0     0  0
 15 16  2  0     0  0
 30 32  1  0     0  0
M  CHG  2  30   1  32  -1
M  END
>  <prID>
929

>  <IDDB>
335819

>  <pIC50_HIV_Integrase>
4.15490196

>  <Q>
-0.393086483

>  <Activity_Integrase>
Inactive_Integrase

NA
NA
NA
NA
$$$$

  Accelrys05311914292D 1   1.00000     0.00000     0

 25 28  0     0  0            999 V2000
    2.0302   -1.3788    0.0000 C   0  0  0  0  0  0           0  0  0
    2.3333   -2.1486    0.0000 C   0  0  0  0  0  0           0  0  0
    3.1498   -2.2699    0.0000 C   0  0  0  0  0  0           0  0  0
    3.6642   -1.6221    0.0000 C   0  0  0  0  0  0           0  0  0
    3.3562   -0.8508    0.0000 C   0  0  0  0  0  0           0  0  0
    2.5405   -0.7332    0.0000 C   0  0  0  0  0  0           0  0  0
    1.9649   -2.8908    0.0000 N   0  0  0  0  0  0           0  0  0
    2.5568   -3.4655    0.0000 C   0  0  0  0  0  0           0  0  0
    3.2873   -3.0817    0.0000 C   0  0  0  0  0  0           0  0  0
    3.9886   -4.2968    0.0000 C   0  0  0  0  0  0           0  0  0
    4.7719   -4.5558    0.0000 C   0  0  0  0  0  0           0  0  0
    5.2619   -3.8920    0.0000 N   0  0  3  0  0  0           0  0  0
    4.7793   -3.2197    0.0000 C   0  0  0  0  0  0           0  0  0
    3.9951   -3.4730    0.0000 C   0  0  0  0  0  0           0  0  0
    2.5557   -4.2940    0.0000 C   0  0  0  0  0  0           0  0  0
    3.2706   -4.7069    0.0000 C   0  0  0  0  0  0           0  0  0
    4.9917   -2.4167    0.0000 O   0  0  0  0  0  0           0  0  0
    4.9833   -5.3500    0.0000 O   0  0  0  0  0  0           0  0  0
    6.0833   -3.8917    0.0000 C   0  0  0  0  0  0           0  0  0
    6.4917   -3.1750    0.0000 C   0  0  0  0  0  0           0  0  0
    7.3167   -3.1750    0.0000 N   0  0  3  0  0  0           0  0  0
    7.7250   -2.4583    0.0000 C   0  0  0  0  0  0           0  0  0
    7.7250   -3.8875    0.0000 C   0  0  0  0  0  0           0  0  0
    3.9292   -0.0625    0.0000 O   0  0  0  0  0  0           0  0  0
    1.8375   -4.7000    0.0000 C   0  0  0  0  0  0           0  0  0
  7  8  1  0     0  0
 11 12  1  0     0  0
 12 13  1  0     0  0
 13 14  1  0     0  0
 14 10  2  0     0  0
  1  2  2  0     0  0
  8 15  1  0     0  0
  3  4  2  0     0  0
 15 16  2  0     0  0
 16 10  1  0     0  0
 14  9  1  0     0  0
 13 17  2  0     0  0
  8  9  2  0     0  0
 11 18  2  0     0  0
  9  3  1  0     0  0
 12 19  1  0     0  0
  2  7  1  0     0  0
 19 20  1  0     0  0
 10 11  1  0     0  0
 20 21  1  0     0  0
  4  5  1  0     0  0
 21 22  1  0     0  0
  2  3  1  0     0  0
 21 23  1  0     0  0
  5  6  2  0     0  0
  5 24  1  0     0  0
  6  1  1  0     0  0
 15 25  1  0     0  0
M  END
>  <prID>
930

>  <IDDB>
339006

>  <pIC50_HIV_Integrase>
5.401757154

>  <Q>
-0.570722973

>  <Activity_Integrase>
Inactive_Integrase

NA
NA
NA
NA
$$$$

  Accelrys05311914292D 1   1.00000     0.00000     0

 26 29  0     0  0            999 V2000
    2.0302   -1.3788    0.0000 C   0  0  0  0  0  0           0  0  0
    2.3333   -2.1486    0.0000 C   0  0  0  0  0  0           0  0  0
    3.1498   -2.2699    0.0000 C   0  0  0  0  0  0           0  0  0
    3.6642   -1.6221    0.0000 C   0  0  0  0  0  0           0  0  0
    3.3562   -0.8508    0.0000 C   0  0  0  0  0  0           0  0  0
    2.5405   -0.7332    0.0000 C   0  0  0  0  0  0           0  0  0
    1.9649   -2.8908    0.0000 N   0  0  0  0  0  0           0  0  0
    2.5568   -3.4655    0.0000 C   0  0  0  0  0  0           0  0  0
    3.2873   -3.0817    0.0000 C   0  0  0  0  0  0           0  0  0
    3.9886   -4.2968    0.0000 C   0  0  0  0  0  0           0  0  0
    4.7719   -4.5558    0.0000 C   0  0  0  0  0  0           0  0  0
    5.2619   -3.8920    0.0000 N   0  0  3  0  0  0           0  0  0
    4.7793   -3.2197    0.0000 C   0  0  0  0  0  0           0  0  0
    3.9951   -3.4730    0.0000 C   0  0  0  0  0  0           0  0  0
    2.5557   -4.2940    0.0000 C   0  0  0  0  0  0           0  0  0
    3.2706   -4.7069    0.0000 C   0  0  0  0  0  0           0  0  0
    4.9917   -2.4167    0.0000 O   0  0  0  0  0  0           0  0  0
    4.9833   -5.3500    0.0000 O   0  0  0  0  0  0           0  0  0
    6.0833   -3.8917    0.0000 C   0  0  0  0  0  0           0  0  0
    6.4917   -3.1750    0.0000 C   0  0  0  0  0  0           0  0  0
    7.3167   -3.1750    0.0000 N   0  0  3  0  0  0           0  0  0
    7.7250   -2.4583    0.0000 C   0  0  0  0  0  0           0  0  0
    7.7250   -3.8875    0.0000 C   0  0  0  0  0  0           0  0  0
    3.9292   -0.0625    0.0000 O   0  0  0  0  0  0           0  0  0
    1.8375   -4.7000    0.0000 C   0  0  0  0  0  0           0  0  0
    1.1500   -1.2792    0.0000 C   0  0  0  0  0  0           0  0  0
 11 12  1  0     0  0
 12 13  1  0     0  0
 13 14  1  0     0  0
 14 10  2  0     0  0
  1  2  2  0     0  0
  8 15  1  0     0  0
  3  4  2  0     0  0
 15 16  2  0     0  0
 16 10  1  0     0  0
 14  9  1  0     0  0
 13 17  2  0     0  0
  8  9  2  0     0  0
 11 18  2  0     0  0
  9  3  1  0     0  0
 12 19  1  0     0  0
  2  7  1  0     0  0
 19 20  1  0     0  0
 10 11  1  0     0  0
 20 21  1  0     0  0
  4  5  1  0     0  0
 21 22  1  0     0  0
  2  3  1  0     0  0
 21 23  1  0     0  0
  5  6  2  0     0  0
  5 24  1  0     0  0
  6  1  1  0     0  0
 15 25  1  0     0  0
  7  8  1  0     0  0
  1 26  1  0     0  0
M  END
>  <prID>
931

>  <IDDB>
339007

>  <pIC50_HIV_Integrase>
5.1647012925

>  <Q>
-0.74356979

>  <Activity_Integrase>
Inactive_Integrase

NA
NA
NA
NA
$$$$

  Accelrys05311914292D 1   1.00000     0.00000     0

 26 29  0     0  0            999 V2000
    2.0302   -1.3788    0.0000 C   0  0  0  0  0  0           0  0  0
    2.3333   -2.1486    0.0000 C   0  0  0  0  0  0           0  0  0
    3.1498   -2.2699    0.0000 C   0  0  0  0  0  0           0  0  0
    3.6642   -1.6221    0.0000 C   0  0  0  0  0  0           0  0  0
    3.3562   -0.8508    0.0000 C   0  0  0  0  0  0           0  0  0
    2.5405   -0.7332    0.0000 C   0  0  0  0  0  0           0  0  0
    1.9649   -2.8908    0.0000 N   0  0  0  0  0  0           0  0  0
    2.5568   -3.4655    0.0000 C   0  0  0  0  0  0           0  0  0
    3.2873   -3.0817    0.0000 C   0  0  0  0  0  0           0  0  0
    3.9886   -4.2968    0.0000 C   0  0  0  0  0  0           0  0  0
    4.7719   -4.5558    0.0000 C   0  0  0  0  0  0           0  0  0
    5.2619   -3.8920    0.0000 N   0  0  3  0  0  0           0  0  0
    4.7793   -3.2197    0.0000 C   0  0  0  0  0  0           0  0  0
    3.9951   -3.4730    0.0000 C   0  0  0  0  0  0           0  0  0
    2.5557   -4.2940    0.0000 C   0  0  0  0  0  0           0  0  0
    3.2706   -4.7069    0.0000 C   0  0  0  0  0  0           0  0  0
    4.9917   -2.4167    0.0000 O   0  0  0  0  0  0           0  0  0
    4.9833   -5.3500    0.0000 O   0  0  0  0  0  0           0  0  0
    6.0833   -3.8917    0.0000 C   0  0  0  0  0  0           0  0  0
    6.4917   -3.1750    0.0000 C   0  0  0  0  0  0           0  0  0
    7.3167   -3.1750    0.0000 N   0  0  3  0  0  0           0  0  0
    7.7250   -2.4583    0.0000 C   0  0  0  0  0  0           0  0  0
    7.7250   -3.8875    0.0000 C   0  0  0  0  0  0           0  0  0
    3.9292   -0.0625    0.0000 O   0  0  0  0  0  0           0  0  0
    1.8375   -4.7000    0.0000 C   0  0  0  0  0  0           0  0  0
    2.2125    0.0958    0.0000 Cl  0  0  0  0  0  0           0  0  0
 11 12  1  0     0  0
 12 13  1  0     0  0
 13 14  1  0     0  0
 14 10  2  0     0  0
  1  2  2  0     0  0
  8 15  1  0     0  0
  3  4  2  0     0  0
 15 16  2  0     0  0
 16 10  1  0     0  0
 14  9  1  0     0  0
 13 17  2  0     0  0
  8  9  2  0     0  0
 11 18  2  0     0  0
  9  3  1  0     0  0
 12 19  1  0     0  0
  2  7  1  0     0  0
 19 20  1  0     0  0
 10 11  1  0     0  0
 20 21  1  0     0  0
  4  5  1  0     0  0
 21 22  1  0     0  0
  2  3  1  0     0  0
 21 23  1  0     0  0
  5  6  2  0     0  0
  5 24  1  0     0  0
  6  1  1  0     0  0
 15 25  1  0     0  0
  7  8  1  0     0  0
  6 26  1  0     0  0
M  END
>  <prID>
932

>  <IDDB>
339008

>  <pIC50_HIV_Integrase>
5.6145739945

>  <Q>
-1.482927724

>  <Activity_Integrase>
Inactive_Integrase

NA
NA
NA
NA
$$$$

  Accelrys05311914292D 1   1.00000     0.00000     0

 25 28  0     0  0            999 V2000
    2.0302   -1.3788    0.0000 C   0  0  0  0  0  0           0  0  0
    2.3333   -2.1486    0.0000 C   0  0  0  0  0  0           0  0  0
    3.1498   -2.2699    0.0000 C   0  0  0  0  0  0           0  0  0
    3.6642   -1.6221    0.0000 C   0  0  0  0  0  0           0  0  0
    3.3562   -0.8508    0.0000 C   0  0  0  0  0  0           0  0  0
    2.5405   -0.7332    0.0000 C   0  0  0  0  0  0           0  0  0
    1.9649   -2.8908    0.0000 N   0  0  3  0  0  0           0  0  0
    2.5568   -3.4655    0.0000 C   0  0  0  0  0  0           0  0  0
    3.2873   -3.0817    0.0000 C   0  0  0  0  0  0           0  0  0
    3.9886   -4.2968    0.0000 C   0  0  0  0  0  0           0  0  0
    4.7719   -4.5558    0.0000 C   0  0  0  0  0  0           0  0  0
    5.2619   -3.8920    0.0000 N   0  0  3  0  0  0           0  0  0
    4.7793   -3.2197    0.0000 C   0  0  0  0  0  0           0  0  0
    3.9951   -3.4730    0.0000 C   0  0  0  0  0  0           0  0  0
    2.5557   -4.2940    0.0000 C   0  0  0  0  0  0           0  0  0
    3.2706   -4.7069    0.0000 C   0  0  0  0  0  0           0  0  0
    4.9917   -2.4167    0.0000 O   0  0  0  0  0  0           0  0  0
    4.9833   -5.3500    0.0000 O   0  0  0  0  0  0           0  0  0
    6.0833   -3.8917    0.0000 C   0  0  0  0  0  0           0  0  0
    6.4917   -3.1750    0.0000 C   0  0  0  0  0  0           0  0  0
    7.3167   -3.1750    0.0000 N   0  0  3  0  0  0           0  0  0
    7.7250   -2.4583    0.0000 C   0  0  0  0  0  0           0  0  0
    7.7250   -3.8875    0.0000 C   0  0  0  0  0  0           0  0  0
    1.8375   -4.7000    0.0000 C   0  0  0  0  0  0           0  0  0
    1.1625   -3.1000    0.0000 C   0  0  0  0  0  0           0  0  0
  7  8  1  0     0  0
 11 12  1  0     0  0
 12 13  1  0     0  0
 13 14  1  0     0  0
 14 10  2  0     0  0
  1  2  2  0     0  0
  8 15  1  0     0  0
  3  4  2  0     0  0
 15 16  2  0     0  0
 16 10  1  0     0  0
 14  9  1  0     0  0
 13 17  2  0     0  0
  8  9  2  0     0  0
 11 18  2  0     0  0
  9  3  1  0     0  0
 12 19  1  0     0  0
  2  7  1  0     0  0
 19 20  1  0     0  0
 10 11  1  0     0  0
 20 21  1  0     0  0
  4  5  1  0     0  0
 21 22  1  0     0  0
  2  3  1  0     0  0
 21 23  1  0     0  0
  5  6  2  0     0  0
 15 24  1  0     0  0
  6  1  1  0     0  0
  7 25  1  0     0  0
M  END
>  <prID>
933

>  <IDDB>
339009

>  <pIC50_HIV_Integrase>
5.2933635325

>  <Q>
1.309181361

>  <Activity_Integrase>
Inactive_Integrase

NA
NA
NA
NA
$$$$

  Accelrys05311914292D 1   1.00000     0.00000     0

 26 29  0     0  0            999 V2000
    2.0302   -1.3788    0.0000 C   0  0  0  0  0  0           0  0  0
    2.3333   -2.1486    0.0000 C   0  0  0  0  0  0           0  0  0
    3.1498   -2.2699    0.0000 C   0  0  0  0  0  0           0  0  0
    3.6642   -1.6221    0.0000 C   0  0  0  0  0  0           0  0  0
    3.3562   -0.8508    0.0000 C   0  0  0  0  0  0           0  0  0
    2.5405   -0.7332    0.0000 C   0  0  0  0  0  0           0  0  0
    1.9649   -2.8908    0.0000 N   0  0  0  0  0  0           0  0  0
    2.5568   -3.4655    0.0000 C   0  0  0  0  0  0           0  0  0
    3.2873   -3.0817    0.0000 C   0  0  0  0  0  0           0  0  0
    3.9886   -4.2968    0.0000 C   0  0  0  0  0  0           0  0  0
    4.7719   -4.5558    0.0000 C   0  0  0  0  0  0           0  0  0
    5.2619   -3.8920    0.0000 N   0  0  3  0  0  0           0  0  0
    4.7793   -3.2197    0.0000 C   0  0  0  0  0  0           0  0  0
    3.9951   -3.4730    0.0000 C   0  0  0  0  0  0           0  0  0
    2.5557   -4.2940    0.0000 C   0  0  0  0  0  0           0  0  0
    3.2706   -4.7069    0.0000 C   0  0  0  0  0  0           0  0  0
    4.9917   -2.4167    0.0000 O   0  0  0  0  0  0           0  0  0
    4.9833   -5.3500    0.0000 O   0  0  0  0  0  0           0  0  0
    6.0833   -3.8917    0.0000 C   0  0  0  0  0  0           0  0  0
    6.4917   -3.1750    0.0000 C   0  0  0  0  0  0           0  0  0
    7.3167   -3.1750    0.0000 N   0  0  3  0  0  0           0  0  0
    7.7250   -2.4583    0.0000 C   0  0  0  0  0  0           0  0  0
    7.7250   -3.8875    0.0000 C   0  0  0  0  0  0           0  0  0
    1.8375   -4.7000    0.0000 C   0  0  0  0  0  0           0  0  0
    3.9917   -0.2500    0.0000 O   0  0  0  0  0  0           0  0  0
    3.8042    0.5333    0.0000 C   0  0  0  0  0  0           0  0  0
 11 12  1  0     0  0
 12 13  1  0     0  0
 13 14  1  0     0  0
 14 10  2  0     0  0
  1  2  2  0     0  0
  8 15  1  0     0  0
  3  4  2  0     0  0
 15 16  2  0     0  0
 16 10  1  0     0  0
 14  9  1  0     0  0
 13 17  2  0     0  0
  8  9  2  0     0  0
 11 18  2  0     0  0
  9  3  1  0     0  0
 12 19  1  0     0  0
  2  7  1  0     0  0
 19 20  1  0     0  0
 10 11  1  0     0  0
 20 21  1  0     0  0
  4  5  1  0     0  0
 21 22  1  0     0  0
  2  3  1  0     0  0
 21 23  1  0     0  0
  5  6  2  0     0  0
 15 24  1  0     0  0
  6  1  1  0     0  0
  5 25  1  0     0  0
  7  8  1  0     0  0
 25 26  1  0     0  0
M  END
>  <prID>
934

>  <IDDB>
339010

>  <pIC50_HIV_Integrase>
5.410931847

>  <Q>
0.012108581

>  <Activity_Integrase>
Inactive_Integrase

NA
NA
NA
NA
$$$$

  Accelrys05311914292D 1   1.00000     0.00000     0

 26 29  0     0  0            999 V2000
    2.0302   -1.3788    0.0000 C   0  0  0  0  0  0           0  0  0
    2.3333   -2.1486    0.0000 C   0  0  0  0  0  0           0  0  0
    3.1498   -2.2699    0.0000 C   0  0  0  0  0  0           0  0  0
    3.6642   -1.6221    0.0000 C   0  0  0  0  0  0           0  0  0
    3.3562   -0.8508    0.0000 C   0  0  0  0  0  0           0  0  0
    2.5405   -0.7332    0.0000 C   0  0  0  0  0  0           0  0  0
    1.9649   -2.8908    0.0000 N   0  0  3  0  0  0           0  0  0
    2.5568   -3.4655    0.0000 C   0  0  0  0  0  0           0  0  0
    3.2873   -3.0817    0.0000 C   0  0  0  0  0  0           0  0  0
    3.9886   -4.2968    0.0000 C   0  0  0  0  0  0           0  0  0
    4.7719   -4.5558    0.0000 C   0  0  0  0  0  0           0  0  0
    5.2619   -3.8920    0.0000 N   0  0  3  0  0  0           0  0  0
    4.7793   -3.2197    0.0000 C   0  0  0  0  0  0           0  0  0
    3.9951   -3.4730    0.0000 C   0  0  0  0  0  0           0  0  0
    2.5557   -4.2940    0.0000 C   0  0  0  0  0  0           0  0  0
    3.2706   -4.7069    0.0000 C   0  0  0  0  0  0           0  0  0
    4.9917   -2.4167    0.0000 O   0  0  0  0  0  0           0  0  0
    4.9833   -5.3500    0.0000 O   0  0  0  0  0  0           0  0  0
    6.0833   -3.8917    0.0000 C   0  0  0  0  0  0           0  0  0
    6.4917   -3.1750    0.0000 C   0  0  0  0  0  0           0  0  0
    7.3167   -3.1750    0.0000 N   0  0  3  0  0  0           0  0  0
    7.7250   -2.4583    0.0000 C   0  0  0  0  0  0           0  0  0
    7.7250   -3.8875    0.0000 C   0  0  0  0  0  0           0  0  0
    3.9917   -0.2500    0.0000 O   0  0  0  0  0  0           0  0  0
    3.8042    0.5333    0.0000 C   0  0  0  0  0  0           0  0  0
    1.1375   -2.8875    0.0000 C   0  0  0  0  0  0           0  0  0
 11 12  1  0     0  0
 12 13  1  0     0  0
 13 14  1  0     0  0
 14 10  2  0     0  0
  1  2  2  0     0  0
  8 15  1  0     0  0
  3  4  2  0     0  0
 15 16  2  0     0  0
 16 10  1  0     0  0
 14  9  1  0     0  0
 13 17  2  0     0  0
  8  9  2  0     0  0
 11 18  2  0     0  0
  9  3  1  0     0  0
 12 19  1  0     0  0
  2  7  1  0     0  0
 19 20  1  0     0  0
 10 11  1  0     0  0
 20 21  1  0     0  0
  4  5  1  0     0  0
 21 22  1  0     0  0
  2  3  1  0     0  0
 21 23  1  0     0  0
  5  6  2  0     0  0
  5 24  1  0     0  0
  6  1  1  0     0  0
 24 25  1  0     0  0
  7  8  1  0     0  0
  7 26  1  0     0  0
M  END
>  <prID>
935

>  <IDDB>
339011

>  <pIC50_HIV_Integrase>
5.549652613

>  <Q>
1.215660785

>  <Activity_Integrase>
Inactive_Integrase

NA
NA
NA
NA
$$$$

  Accelrys05311914292D 1   1.00000     0.00000     0

 25 28  0     0  0            999 V2000
    2.0302   -1.3788    0.0000 C   0  0  0  0  0  0           0  0  0
    2.3333   -2.1486    0.0000 C   0  0  0  0  0  0           0  0  0
    3.1498   -2.2699    0.0000 C   0  0  0  0  0  0           0  0  0
    3.6642   -1.6221    0.0000 C   0  0  0  0  0  0           0  0  0
    3.3562   -0.8508    0.0000 C   0  0  0  0  0  0           0  0  0
    2.5405   -0.7332    0.0000 C   0  0  0  0  0  0           0  0  0
    1.9649   -2.8908    0.0000 N   0  0  3  0  0  0           0  0  0
    2.5568   -3.4655    0.0000 C   0  0  0  0  0  0           0  0  0
    3.2873   -3.0817    0.0000 C   0  0  0  0  0  0           0  0  0
    3.9886   -4.2968    0.0000 C   0  0  0  0  0  0           0  0  0
    4.7719   -4.5558    0.0000 C   0  0  0  0  0  0           0  0  0
    5.2619   -3.8920    0.0000 N   0  0  3  0  0  0           0  0  0
    4.7793   -3.2197    0.0000 C   0  0  0  0  0  0           0  0  0
    3.9951   -3.4730    0.0000 C   0  0  0  0  0  0           0  0  0
    2.5557   -4.2940    0.0000 C   0  0  0  0  0  0           0  0  0
    3.2706   -4.7069    0.0000 C   0  0  0  0  0  0           0  0  0
    4.9917   -2.4167    0.0000 O   0  0  0  0  0  0           0  0  0
    4.9833   -5.3500    0.0000 O   0  0  0  0  0  0           0  0  0
    6.0833   -3.8917    0.0000 C   0  0  0  0  0  0           0  0  0
    6.4917   -3.1750    0.0000 C   0  0  0  0  0  0           0  0  0
    7.3167   -3.1750    0.0000 N   0  0  3  0  0  0           0  0  0
    7.7250   -2.4583    0.0000 C   0  0  0  0  0  0           0  0  0
    7.7250   -3.8875    0.0000 C   0  0  0  0  0  0           0  0  0
    3.9917   -0.2500    0.0000 O   0  0  0  0  0  0           0  0  0
    1.1375   -2.8875    0.0000 C   0  0  0  0  0  0           0  0  0
  7  8  1  0     0  0
 11 12  1  0     0  0
 12 13  1  0     0  0
 13 14  1  0     0  0
 14 10  2  0     0  0
  1  2  2  0     0  0
  8 15  1  0     0  0
  3  4  2  0     0  0
 15 16  2  0     0  0
 16 10  1  0     0  0
 14  9  1  0     0  0
 13 17  2  0     0  0
  8  9  2  0     0  0
 11 18  2  0     0  0
  9  3  1  0     0  0
 12 19  1  0     0  0
  2  7  1  0     0  0
 19 20  1  0     0  0
 10 11  1  0     0  0
 20 21  1  0     0  0
  4  5  1  0     0  0
 21 22  1  0     0  0
  2  3  1  0     0  0
 21 23  1  0     0  0
  5  6  2  0     0  0
  5 24  1  0     0  0
  6  1  1  0     0  0
  7 25  1  0     0  0
M  END
>  <prID>
936

>  <IDDB>
339012

>  <pIC50_HIV_Integrase>
5.4882626525

>  <Q>
0.632837269

>  <Activity_Integrase>
Inactive_Integrase

NA
NA
NA
NA
$$$$

  Accelrys05311914292D 1   1.00000     0.00000     0

 26 29  0     0  0            999 V2000
    2.0302   -1.3788    0.0000 C   0  0  0  0  0  0           0  0  0
    2.3333   -2.1486    0.0000 C   0  0  0  0  0  0           0  0  0
    3.1498   -2.2699    0.0000 C   0  0  0  0  0  0           0  0  0
    3.6642   -1.6221    0.0000 C   0  0  0  0  0  0           0  0  0
    3.3562   -0.8508    0.0000 C   0  0  0  0  0  0           0  0  0
    2.5405   -0.7332    0.0000 C   0  0  0  0  0  0           0  0  0
    1.9649   -2.8908    0.0000 N   0  0  0  0  0  0           0  0  0
    2.5568   -3.4655    0.0000 C   0  0  0  0  0  0           0  0  0
    3.2873   -3.0817    0.0000 C   0  0  0  0  0  0           0  0  0
    3.9886   -4.2968    0.0000 C   0  0  0  0  0  0           0  0  0
    4.7719   -4.5558    0.0000 C   0  0  0  0  0  0           0  0  0
    5.2619   -3.8920    0.0000 N   0  0  3  0  0  0           0  0  0
    4.7793   -3.2197    0.0000 C   0  0  0  0  0  0           0  0  0
    3.9951   -3.4730    0.0000 C   0  0  0  0  0  0           0  0  0
    2.5557   -4.2940    0.0000 C   0  0  0  0  0  0           0  0  0
    3.2706   -4.7069    0.0000 C   0  0  0  0  0  0           0  0  0
    4.9917   -2.4167    0.0000 O   0  0  0  0  0  0           0  0  0
    4.9833   -5.3500    0.0000 O   0  0  0  0  0  0           0  0  0
    6.0833   -3.8917    0.0000 C   0  0  0  0  0  0           0  0  0
    6.4917   -3.1750    0.0000 C   0  0  0  0  0  0           0  0  0
    7.3167   -3.1750    0.0000 N   0  0  3  0  0  0           0  0  0
    7.7250   -2.4583    0.0000 C   0  0  0  0  0  0           0  0  0
    7.7250   -3.8875    0.0000 C   0  0  0  0  0  0           0  0  0
    3.9917   -0.2500    0.0000 O   0  0  0  0  0  0           0  0  0
    1.8375   -4.7000    0.0000 C   0  0  0  0  0  0           0  0  0
    2.2125    0.2208    0.0000 F   0  0  0  0  0  0           0  0  0
 11 12  1  0     0  0
 12 13  1  0     0  0
 13 14  1  0     0  0
 14 10  2  0     0  0
  1  2  2  0     0  0
  8 15  1  0     0  0
  3  4  2  0     0  0
 15 16  2  0     0  0
 16 10  1  0     0  0
 14  9  1  0     0  0
 13 17  2  0     0  0
  8  9  2  0     0  0
 11 18  2  0     0  0
  9  3  1  0     0  0
 12 19  1  0     0  0
  2  7  1  0     0  0
 19 20  1  0     0  0
 10 11  1  0     0  0
 20 21  1  0     0  0
  4  5  1  0     0  0
 21 22  1  0     0  0
  2  3  1  0     0  0
 21 23  1  0     0  0
  5  6  2  0     0  0
  5 24  1  0     0  0
  6  1  1  0     0  0
 15 25  1  0     0  0
  7  8  1  0     0  0
  6 26  1  0     0  0
M  END
>  <prID>
937

>  <IDDB>
339013

>  <pIC50_HIV_Integrase>
5.730449399

>  <Q>
-2.979861355

>  <Activity_Integrase>
Inactive_Integrase

NA
NA
NA
NA
$$$$

  Accelrys05311914292D 1   1.00000     0.00000     0

 24 27  0     0  0            999 V2000
    2.0302   -1.3788    0.0000 C   0  0  0  0  0  0           0  0  0
    2.3333   -2.1486    0.0000 C   0  0  0  0  0  0           0  0  0
    3.1498   -2.2699    0.0000 C   0  0  0  0  0  0           0  0  0
    3.6642   -1.6221    0.0000 C   0  0  0  0  0  0           0  0  0
    3.3562   -0.8508    0.0000 C   0  0  0  0  0  0           0  0  0
    2.5405   -0.7332    0.0000 C   0  0  0  0  0  0           0  0  0
    1.9649   -2.8908    0.0000 N   0  0  0  0  0  0           0  0  0
    2.5568   -3.4655    0.0000 C   0  0  0  0  0  0           0  0  0
    3.2873   -3.0817    0.0000 C   0  0  0  0  0  0           0  0  0
    3.9886   -4.2968    0.0000 C   0  0  0  0  0  0           0  0  0
    4.7719   -4.5558    0.0000 C   0  0  0  0  0  0           0  0  0
    5.2619   -3.8920    0.0000 N   0  0  3  0  0  0           0  0  0
    4.7793   -3.2197    0.0000 C   0  0  0  0  0  0           0  0  0
    3.9951   -3.4730    0.0000 C   0  0  0  0  0  0           0  0  0
    2.5557   -4.2940    0.0000 C   0  0  0  0  0  0           0  0  0
    3.2706   -4.7069    0.0000 C   0  0  0  0  0  0           0  0  0
    4.9917   -2.4167    0.0000 O   0  0  0  0  0  0           0  0  0
    4.9833   -5.3500    0.0000 O   0  0  0  0  0  0           0  0  0
    6.0833   -3.8917    0.0000 C   0  0  0  0  0  0           0  0  0
    6.4917   -3.1750    0.0000 C   0  0  0  0  0  0           0  0  0
    7.3167   -3.1750    0.0000 N   0  0  3  0  0  0           0  0  0
    7.7250   -2.4583    0.0000 C   0  0  0  0  0  0           0  0  0
    7.7250   -3.8875    0.0000 C   0  0  0  0  0  0           0  0  0
    3.9917   -0.2500    0.0000 Cl  0  0  0  0  0  0           0  0  0
  6  1  1  0     0  0
  7  8  1  0     0  0
 11 12  1  0     0  0
 12 13  1  0     0  0
 13 14  1  0     0  0
 14 10  2  0     0  0
  1  2  2  0     0  0
  8 15  1  0     0  0
  3  4  2  0     0  0
 15 16  2  0     0  0
 16 10  1  0     0  0
 14  9  1  0     0  0
 13 17  2  0     0  0
  8  9  2  0     0  0
 11 18  2  0     0  0
  9  3  1  0     0  0
 12 19  1  0     0  0
  2  7  1  0     0  0
 19 20  1  0     0  0
 10 11  1  0     0  0
 20 21  1  0     0  0
  4  5  1  0     0  0
 21 22  1  0     0  0
  2  3  1  0     0  0
 21 23  1  0     0  0
  5  6  2  0     0  0
  5 24  1  0     0  0
M  END
>  <prID>
938

>  <IDDB>
339014

>  <pIC50_HIV_Integrase>
4.654580908

>  <Q>
-0.509890502

>  <Activity_Integrase>
Inactive_Integrase

NA
NA
NA
NA
$$$$

  Accelrys05311914292D 1   1.00000     0.00000     0

 27 30  0     0  0            999 V2000
    2.0302   -1.3788    0.0000 C   0  0  0  0  0  0           0  0  0
    2.3333   -2.1486    0.0000 C   0  0  0  0  0  0           0  0  0
    3.1498   -2.2699    0.0000 C   0  0  0  0  0  0           0  0  0
    3.6642   -1.6221    0.0000 C   0  0  0  0  0  0           0  0  0
    3.3562   -0.8508    0.0000 C   0  0  0  0  0  0           0  0  0
    2.5405   -0.7332    0.0000 C   0  0  0  0  0  0           0  0  0
    1.9649   -2.8908    0.0000 N   0  0  0  0  0  0           0  0  0
    2.5568   -3.4655    0.0000 C   0  0  0  0  0  0           0  0  0
    3.2873   -3.0817    0.0000 C   0  0  0  0  0  0           0  0  0
    3.9886   -4.2968    0.0000 C   0  0  0  0  0  0           0  0  0
    4.7719   -4.5558    0.0000 C   0  0  0  0  0  0           0  0  0
    5.2619   -3.8920    0.0000 N   0  0  3  0  0  0           0  0  0
    4.7793   -3.2197    0.0000 C   0  0  0  0  0  0           0  0  0
    3.9951   -3.4730    0.0000 C   0  0  0  0  0  0           0  0  0
    2.5557   -4.2940    0.0000 C   0  0  0  0  0  0           0  0  0
    3.2706   -4.7069    0.0000 C   0  0  0  0  0  0           0  0  0
    4.9917   -2.4167    0.0000 O   0  0  0  0  0  0           0  0  0
    4.9833   -5.3500    0.0000 O   0  0  0  0  0  0           0  0  0
    6.0833   -3.8917    0.0000 C   0  0  0  0  0  0           0  0  0
    6.4917   -3.1750    0.0000 C   0  0  0  0  0  0           0  0  0
    7.3167   -3.1750    0.0000 N   0  0  3  0  0  0           0  0  0
    7.7250   -2.4583    0.0000 C   0  0  0  0  0  0           0  0  0
    7.7250   -3.8875    0.0000 C   0  0  0  0  0  0           0  0  0
    3.9917   -0.2500    0.0000 O   0  0  0  0  0  0           0  0  0
    2.3208    0.0708    0.0000 O   0  0  0  0  0  0           0  0  0
    1.6042    0.4833    0.0000 C   0  0  0  0  0  0           0  0  0
    4.8333   -0.4750    0.0000 C   0  0  0  0  0  0           0  0  0
 12 13  1  0     0  0
 13 14  1  0     0  0
 14 10  2  0     0  0
  1  2  2  0     0  0
  8 15  1  0     0  0
  3  4  2  0     0  0
 15 16  2  0     0  0
 16 10  1  0     0  0
 14  9  1  0     0  0
 13 17  2  0     0  0
  8  9  2  0     0  0
 11 18  2  0     0  0
  9  3  1  0     0  0
 12 19  1  0     0  0
  2  7  1  0     0  0
 19 20  1  0     0  0
 10 11  1  0     0  0
 20 21  1  0     0  0
  4  5  1  0     0  0
 21 22  1  0     0  0
  2  3  1  0     0  0
 21 23  1  0     0  0
  5  6  2  0     0  0
  5 24  1  0     0  0
  6  1  1  0     0  0
  6 25  1  0     0  0
  7  8  1  0     0  0
 25 26  1  0     0  0
 11 12  1  0     0  0
 24 27  1  0     0  0
M  END
>  <prID>
939

>  <IDDB>
339015

>  <pIC50_HIV_Integrase>
4.161465729

>  <Q>
-0.053494816

>  <Activity_Integrase>
Inactive_Integrase

NA
NA
NA
NA
$$$$

  Accelrys05311914292D 1   1.00000     0.00000     0

 25 28  0     0  0            999 V2000
    2.0302   -1.3788    0.0000 C   0  0  0  0  0  0           0  0  0
    2.3333   -2.1486    0.0000 C   0  0  0  0  0  0           0  0  0
    3.1498   -2.2699    0.0000 C   0  0  0  0  0  0           0  0  0
    3.6642   -1.6221    0.0000 C   0  0  0  0  0  0           0  0  0
    3.3562   -0.8508    0.0000 C   0  0  0  0  0  0           0  0  0
    2.5405   -0.7332    0.0000 C   0  0  0  0  0  0           0  0  0
    1.9649   -2.8908    0.0000 N   0  0  0  0  0  0           0  0  0
    2.5568   -3.4655    0.0000 C   0  0  0  0  0  0           0  0  0
    3.2873   -3.0817    0.0000 C   0  0  0  0  0  0           0  0  0
    3.9886   -4.2968    0.0000 C   0  0  0  0  0  0           0  0  0
    4.7719   -4.5558    0.0000 C   0  0  0  0  0  0           0  0  0
    5.2619   -3.8920    0.0000 N   0  0  3  0  0  0           0  0  0
    4.7793   -3.2197    0.0000 C   0  0  0  0  0  0           0  0  0
    3.9951   -3.4730    0.0000 C   0  0  0  0  0  0           0  0  0
    2.5557   -4.2940    0.0000 C   0  0  0  0  0  0           0  0  0
    3.2706   -4.7069    0.0000 C   0  0  0  0  0  0           0  0  0
    4.9917   -2.4167    0.0000 O   0  0  0  0  0  0           0  0  0
    4.9833   -5.3500    0.0000 O   0  0  0  0  0  0           0  0  0
    6.0833   -3.8917    0.0000 C   0  0  0  0  0  0           0  0  0
    6.4917   -3.1750    0.0000 C   0  0  0  0  0  0           0  0  0
    7.3167   -3.1750    0.0000 N   0  0  3  0  0  0           0  0  0
    7.7250   -2.4583    0.0000 C   0  0  0  0  0  0           0  0  0
    7.7250   -3.8875    0.0000 C   0  0  0  0  0  0           0  0  0
    3.9917   -0.2500    0.0000 O   0  0  0  0  0  0           0  0  0
    2.3208    0.0708    0.0000 O   0  0  0  0  0  0           0  0  0
  7  8  1  0     0  0
 11 12  1  0     0  0
 12 13  1  0     0  0
 13 14  1  0     0  0
 14 10  2  0     0  0
  1  2  2  0     0  0
  8 15  1  0     0  0
  3  4  2  0     0  0
 15 16  2  0     0  0
 16 10  1  0     0  0
 14  9  1  0     0  0
 13 17  2  0     0  0
  8  9  2  0     0  0
 11 18  2  0     0  0
  9  3  1  0     0  0
 12 19  1  0     0  0
  2  7  1  0     0  0
 19 20  1  0     0  0
 10 11  1  0     0  0
 20 21  1  0     0  0
  4  5  1  0     0  0
 21 22  1  0     0  0
  2  3  1  0     0  0
 21 23  1  0     0  0
  5  6  2  0     0  0
  5 24  1  0     0  0
  6  1  1  0     0  0
  6 25  1  0     0  0
M  END
>  <prID>
940

>  <IDDB>
339016

>  <pIC50_HIV_Integrase>
4.7618314605

>  <Q>
-1.221315604

>  <Activity_Integrase>
Inactive_Integrase

NA
NA
NA
NA
$$$$

  Accelrys05311914292D 1   1.00000     0.00000     0

 22 24  0     0  0            999 V2000
    4.5569   -1.8958    0.0000 N   0  0  0  0  0  0           0  0  0
    4.5557   -2.7232    0.0000 C   0  0  0  0  0  0           0  0  0
    5.2706   -3.1360    0.0000 C   0  0  0  0  0  0           0  0  0
    5.9870   -2.7227    0.0000 C   0  0  0  0  0  0           0  0  0
    5.9841   -1.8922    0.0000 C   0  0  0  0  0  0           0  0  0
    5.2688   -1.4830    0.0000 C   0  0  0  0  0  0           0  0  0
    6.7039   -3.1360    0.0000 N   0  0  0  0  0  0           0  0  0
    7.4203   -2.7227    0.0000 C   0  0  0  0  0  0           0  0  0
    7.4175   -1.8922    0.0000 C   0  0  0  0  0  0           0  0  0
    6.7021   -1.4830    0.0000 C   0  0  0  0  0  0           0  0  0
    1.7078   -2.7352    0.0000 C   0  0  0  0  0  0           0  0  0
    2.4203   -3.1435    0.0000 C   0  0  0  0  0  0           0  0  0
    3.1328   -2.7310    0.0000 N   0  0  0  0  0  0           0  0  0
    3.8453   -3.1394    0.0000 C   0  0  0  0  0  0           0  0  0
    0.2777   -1.9083    0.0000 C   0  0  0  0  0  0           0  0  0
    0.2766   -2.7357    0.0000 C   0  0  0  0  0  0           0  0  0
    0.9914   -3.1485    0.0000 C   0  0  0  0  0  0           0  0  0
    1.7050   -1.9047    0.0000 C   0  0  0  0  0  0           0  0  0
    0.9896   -1.4955    0.0000 C   0  0  0  0  0  0           0  0  0
   -0.4750   -1.4667    0.0000 F   0  0  0  0  0  0           0  0  0
    3.8375   -3.9625    0.0000 O   0  0  0  0  0  0           0  0  0
    5.2625   -3.9583    0.0000 O   0  0  0  0  0  0           0  0  0
  2  3  1  0     0  0
  5  6  2  0     0  0
 11 12  1  0     0  0
  6  1  1  0     0  0
 12 13  1  0     0  0
  1  2  2  0     0  0
 13 14  1  0     0  0
 14  2  1  0     0  0
  4  7  1  0     0  0
  3  4  2  0     0  0
 15 16  2  0     0  0
  7  8  2  0     0  0
 16 17  1  0     0  0
 17 11  2  0     0  0
 11 18  1  0     0  0
  8  9  1  0     0  0
 18 19  2  0     0  0
 19 15  1  0     0  0
  4  5  1  0     0  0
 15 20  1  0     0  0
  9 10  2  0     0  0
 14 21  2  0     0  0
 10  5  1  0     0  0
  3 22  1  0     0  0
M  END
>  <prID>
941

>  <IDDB>
342642

>  <pIC50_HIV_Integrase>
7.482806108

>  <Q>
-2.952612589

>  <Activity_Integrase>
Active_Integrase

NA
NA
NA
NA
$$$$

  Accelrys05311914292D 1   1.00000     0.00000     0

 30 32  0     0  0            999 V2000
    1.3402   -3.0125    0.0000 C   0  0  0  0  0  0           0  0  0
    1.3391   -3.8398    0.0000 C   0  0  0  0  0  0           0  0  0
    2.0539   -4.2527    0.0000 C   0  0  0  0  0  0           0  0  0
    2.7703   -3.8394    0.0000 C   0  0  0  0  0  0           0  0  0
    2.7675   -3.0088    0.0000 C   0  0  0  0  0  0           0  0  0
    2.0521   -2.5997    0.0000 C   0  0  0  0  0  0           0  0  0
    0.6208   -2.5958    0.0000 F   0  0  0  0  0  0           0  0  0
    3.4792   -4.2500    0.0000 C   0  0  0  0  0  0           0  0  0
    4.1917   -3.8333    0.0000 N   0  0  3  0  0  0           0  0  0
    4.1917   -3.0083    0.0000 C   0  0  0  0  0  0           0  0  0
    4.9037   -4.2417    0.0000 C   0  0  0  0  0  0           0  0  0
    5.6157   -3.8333    0.0000 C   0  0  0  0  0  0           0  0  0
    5.6157   -3.0083    0.0000 C   0  0  0  0  0  0           0  0  0
    4.9037   -2.5917    0.0000 C   0  0  0  0  0  0           0  0  0
    6.3331   -4.2444    0.0000 C   0  0  0  0  0  0           0  0  0
    7.0495   -3.8310    0.0000 C   0  0  0  0  0  0           0  0  0
    7.0466   -3.0005    0.0000 N   0  0  3  0  0  0           0  0  0
    6.3313   -2.5914    0.0000 C   0  0  0  0  0  0           0  0  0
    4.8958   -5.0667    0.0000 O   0  0  0  0  0  0           0  0  0
    7.7583   -4.2417    0.0000 O   0  0  0  0  0  0           0  0  0
    6.3250   -5.0667    0.0000 O   0  0  0  0  0  0           0  0  0
    7.7583   -2.5833    0.0000 C   0  0  3  0  0  0           0  0  0
    6.3250   -1.7625    0.0000 C   0  0  0  0  0  0           0  0  0
    7.1750   -1.3708    0.0000 O   0  0  0  0  0  0           0  0  0
    5.5208   -1.2458    0.0000 N   0  0  3  0  0  0           0  0  0
    5.4875   -0.3750    0.0000 C   0  0  0  0  0  0           0  0  0
    4.8042   -1.6542    0.0000 C   0  0  0  0  0  0           0  0  0
    0.6208   -4.2458    0.0000 Cl  0  0  0  0  0  0           0  0  0
    7.7542   -1.7583    0.0000 C   0  0  0  0  0  0           0  0  0
    8.4708   -2.9958    0.0000 C   0  0  0  0  0  0           0  0  0
  1  7  1  0     0  0
 12 15  2  0     0  0
  3  4  2  0     0  0
 15 16  1  0     0  0
  4  8  1  0     0  0
 16 17  1  0     0  0
 17 18  1  0     0  0
 18 13  2  0     0  0
  8  9  1  0     0  0
 11 19  2  0     0  0
 10  9  1  0     0  0
 16 20  2  0     0  0
  4  5  1  0     0  0
 15 21  1  0     0  0
  2  3  1  0     0  0
 17 22  1  0     0  0
  5  6  2  0     0  0
 18 23  1  0     0  0
  6  1  1  0     0  0
 23 24  2  0     0  0
  1  2  2  0     0  0
 23 25  1  0     0  0
 10 14  1  0     0  0
 25 26  1  0     0  0
  9 11  1  0     0  0
 25 27  1  0     0  0
 11 12  1  0     0  0
  2 28  1  0     0  0
 12 13  1  0     0  0
 22 29  1  0     0  0
 13 14  1  0     0  0
 22 30  1  0     0  0
M  END
>  <prID>
942

>  <IDDB>
342660

>  <pIC50_HIV_Integrase>
7.48148606

>  <Q>
-3.893945791

>  <Activity_Integrase>
Active_Integrase

NA
NA
NA
NA
$$$$

  Accelrys05311914292D 1   1.00000     0.00000     0

 14 15  0     0  0            999 V2000
    1.4902   -2.0500    0.0000 C   0  0  0  0  0  0           0  0  0
    1.4891   -2.8773    0.0000 C   0  0  0  0  0  0           0  0  0
    2.2039   -3.2902    0.0000 C   0  0  0  0  0  0           0  0  0
    2.9203   -2.8769    0.0000 C   0  0  0  0  0  0           0  0  0
    2.9175   -2.0463    0.0000 C   0  0  0  0  0  0           0  0  0
    2.2021   -1.6372    0.0000 C   0  0  0  0  0  0           0  0  0
    4.3042   -2.1250    0.0000 C   0  0  0  0  0  0           0  0  0
    4.9735   -1.6425    0.0000 C   0  0  0  0  0  0           0  0  0
    4.7167   -0.8542    0.0000 N   0  0  0  0  0  0           0  0  0
    3.8917   -0.8542    0.0000 O   0  0  0  0  0  0           0  0  0
    3.6349   -1.6425    0.0000 C   0  0  0  0  0  0           0  0  0
    5.6833   -2.0542    0.0000 C   0  0  0  0  0  0           0  0  0
    6.3958   -1.6375    0.0000 O   0  0  0  0  0  0           0  0  0
    5.6792   -2.8792    0.0000 O   0  0  0  0  0  0           0  0  0
  1  2  2  0     0  0
  3  4  2  0     0  0
  8  9  2  0     0  0
  4  5  1  0     0  0
  2  3  1  0     0  0
  7  8  1  0     0  0
  9 10  1  0     0  0
 11  7  2  0     0  0
 11  5  1  0     0  0
  5  6  2  0     0  0
  8 12  1  0     0  0
  6  1  1  0     0  0
 12 13  1  0     0  0
 10 11  1  0     0  0
 12 14  2  0     0  0
M  END
>  <prID>
943

>  <IDDB>
343235

>  <pIC50_HIV_Integrase>
3.698970004

>  <Q>
-0.517087697

>  <Activity_Integrase>
Inactive_Integrase

NA
NA
NA
NA
$$$$

  Accelrys05311914292D 1   1.00000     0.00000     0

 25 28  0     0  0            999 V2000
    2.3777   -2.4333    0.0000 C   0  0  0  0  0  0           0  0  0
    2.3766   -3.2607    0.0000 C   0  0  0  0  0  0           0  0  0
    3.0914   -3.6735    0.0000 C   0  0  0  0  0  0           0  0  0
    3.8078   -3.2602    0.0000 C   0  0  0  0  0  0           0  0  0
    3.8050   -2.4297    0.0000 C   0  0  0  0  0  0           0  0  0
    3.0896   -2.0205    0.0000 C   0  0  0  0  0  0           0  0  0
    4.5167   -3.6708    0.0000 C   0  0  0  0  0  0           0  0  0
    5.2292   -3.2542    0.0000 N   0  0  3  0  0  0           0  0  0
    7.6584   -2.9089    0.0000 C   0  0  0  0  0  0           0  0  0
    7.9355   -3.6859    0.0000 C   0  0  0  0  0  0           0  0  0
    8.7433   -3.8314    0.0000 C   0  0  0  0  0  0           0  0  0
    9.2768   -3.2076    0.0000 N   0  0  3  0  0  0           0  0  0
    8.9997   -2.4306    0.0000 C   0  0  0  0  0  0           0  0  0
    8.1891   -2.2773    0.0000 C   0  0  0  0  0  0           0  0  0
    5.4826   -2.4699    0.0000 C   0  0  0  0  0  0           0  0  0
    5.7771   -3.8632    0.0000 C   0  0  0  0  0  0           0  0  0
    6.5806   -3.6958    0.0000 C   0  0  0  0  0  0           0  0  0
    6.8364   -2.9114    0.0000 N   0  0  3  0  0  0           0  0  0
    6.2887   -2.2945    0.0000 C   0  0  0  0  0  0           0  0  0
    7.2458   -4.1833    0.0000 C   0  0  0  0  0  0           0  0  0
    7.2375   -5.0083    0.0000 O   0  0  0  0  0  0           0  0  0
    5.5583   -4.6583    0.0000 O   0  0  0  0  0  0           0  0  0
    8.9542   -4.6250    0.0000 O   0  0  0  0  0  0           0  0  0
   10.0708   -3.4167    0.0000 C   0  0  0  0  0  0           0  0  0
    1.6583   -2.0167    0.0000 F   0  0  0  0  0  0           0  0  0
 10 11  1  0     0  0
 11 12  1  0     0  0
 12 13  1  0     0  0
 13 14  1  0     0  0
 15  8  1  0     0  0
  4  7  1  0     0  0
  3  4  2  0     0  0
  7  8  1  0     0  0
  9 10  2  0     0  0
 15 19  1  0     0  0
  8 16  1  0     0  0
 16 17  1  0     0  0
 17 18  1  0     0  0
 18 19  1  0     0  0
 18  9  1  0     0  0
  4  5  1  0     0  0
 10 20  1  0     0  0
 20 17  2  0     0  0
  2  3  1  0     0  0
 20 21  1  0     0  0
  5  6  2  0     0  0
 16 22  2  0     0  0
  6  1  1  0     0  0
 11 23  2  0     0  0
  1  2  2  0     0  0
 12 24  1  0     0  0
  9 14  1  0     0  0
  1 25  1  0     0  0
M  END
>  <prID>
944

>  <IDDB>
343665

>  <pIC50_HIV_Integrase>
8

>  <Q>
-2.988033302

>  <Activity_Integrase>
Active_Integrase

NA
NA
NA
NA
$$$$

  Accelrys05311914292D 1   1.00000     0.00000     0

 32 36  0     0  0            999 V2000
    9.8056   -1.4000    0.0000 C   0  0  0  0  0  0           0  0  0
    9.8068   -2.2273    0.0000 C   0  0  0  0  0  0           0  0  0
    9.0919   -2.6402    0.0000 C   0  0  0  0  0  0           0  0  0
    8.3755   -2.2269    0.0000 C   0  0  0  0  0  0           0  0  0
    8.3784   -1.3963    0.0000 C   0  0  0  0  0  0           0  0  0
    9.0937   -0.9872    0.0000 C   0  0  0  0  0  0           0  0  0
    7.6667   -2.6375    0.0000 C   0  0  0  0  0  0           0  0  0
   10.5250   -0.9833    0.0000 F   0  0  0  0  0  0           0  0  0
   -0.0264   -1.6541    0.0000 C   0  0  0  0  0  0           0  0  0
   -0.0276   -2.4815    0.0000 C   0  0  0  0  0  0           0  0  0
    0.6872   -2.8944    0.0000 C   0  0  0  0  0  0           0  0  0
    1.4037   -2.4810    0.0000 C   0  0  0  0  0  0           0  0  0
    1.4008   -1.6505    0.0000 C   0  0  0  0  0  0           0  0  0
    0.6854   -1.2414    0.0000 C   0  0  0  0  0  0           0  0  0
    2.1125   -2.8917    0.0000 C   0  0  0  0  0  0           0  0  0
    2.8250   -2.4750    0.0000 N   0  0  3  0  0  0           0  0  0
    5.2542   -2.1297    0.0000 C   0  0  0  0  0  0           0  0  0
    5.5313   -2.9068    0.0000 C   0  0  0  0  0  0           0  0  0
    6.3392   -3.0522    0.0000 C   0  0  0  0  0  0           0  0  0
    6.8727   -2.4285    0.0000 N   0  0  3  0  0  0           0  0  0
    6.5955   -1.6514    0.0000 C   0  0  0  0  0  0           0  0  0
    5.7849   -1.4981    0.0000 C   0  0  0  0  0  0           0  0  0
    3.0784   -1.6907    0.0000 C   0  0  0  0  0  0           0  0  0
    3.3729   -3.0840    0.0000 C   0  0  0  0  0  0           0  0  0
    4.1764   -2.9166    0.0000 C   0  0  0  0  0  0           0  0  0
    4.4322   -2.1323    0.0000 N   0  0  3  0  0  0           0  0  0
    3.8845   -1.5153    0.0000 C   0  0  0  0  0  0           0  0  0
    4.8416   -3.4042    0.0000 C   0  0  0  0  0  0           0  0  0
    4.8333   -4.2292    0.0000 O   0  0  0  0  0  0           0  0  0
    3.1542   -3.8792    0.0000 O   0  0  0  0  0  0           0  0  0
    6.5500   -3.8458    0.0000 O   0  0  0  0  0  0           0  0  0
   -0.7458   -1.2375    0.0000 F   0  0  0  0  0  0           0  0  0
 15 16  1  0     0  0
 17 18  2  0     0  0
  1  8  1  0     0  0
  4  5  1  0     0  0
  9 10  2  0     0  0
  2  3  1  0     0  0
 10 11  1  0     0  0
 17 22  1  0     0  0
 18 19  1  0     0  0
 19 20  1  0     0  0
 20 21  1  0     0  0
 21 22  1  0     0  0
 23 16  1  0     0  0
  5  6  2  0     0  0
 11 12  2  0     0  0
  6  1  1  0     0  0
 12 13  1  0     0  0
  1  2  2  0     0  0
 23 27  1  0     0  0
 16 24  1  0     0  0
 24 25  1  0     0  0
 25 26  1  0     0  0
 26 27  1  0     0  0
 26 17  1  0     0  0
 13 14  2  0     0  0
 18 28  1  0     0  0
 28 25  2  0     0  0
 14  9  1  0     0  0
 28 29  1  0     0  0
  4  7  1  0     0  0
 24 30  2  0     0  0
 12 15  1  0     0  0
 19 31  2  0     0  0
 20  7  1  0     0  0
  3  4  2  0     0  0
  9 32  1  0     0  0
M  END
>  <prID>
945

>  <IDDB>
343667

>  <pIC50_HIV_Integrase>
8

>  <Q>
-5.110269602

>  <Activity_Integrase>
Active_Integrase

NA
NA
NA
NA
$$$$

  Accelrys05311914292D 1   1.00000     0.00000     0

 25 28  0     0  0            999 V2000
    7.9185   -6.8424    0.0000 N   0  0  3  0  0  0           0  0  0
    5.4892   -6.4971    0.0000 C   0  0  0  0  0  0           0  0  0
    5.2121   -7.2742    0.0000 C   0  0  0  0  0  0           0  0  0
    4.4043   -7.4196    0.0000 C   0  0  0  0  0  0           0  0  0
    3.8708   -6.7958    0.0000 N   0  0  3  0  0  0           0  0  0
    4.1479   -6.0188    0.0000 C   0  0  0  0  0  0           0  0  0
    4.9585   -5.8655    0.0000 C   0  0  0  0  0  0           0  0  0
    7.6651   -6.0581    0.0000 C   0  0  0  0  0  0           0  0  0
    7.3706   -7.4514    0.0000 C   0  0  0  0  0  0           0  0  0
    6.5671   -7.2840    0.0000 C   0  0  0  0  0  0           0  0  0
    6.3112   -6.4996    0.0000 N   0  0  3  0  0  0           0  0  0
    6.8590   -5.8827    0.0000 C   0  0  0  0  0  0           0  0  0
    5.9019   -7.7715    0.0000 C   0  0  0  0  0  0           0  0  0
    5.9102   -8.5965    0.0000 O   0  0  0  0  0  0           0  0  0
    7.5893   -8.2465    0.0000 O   0  0  0  0  0  0           0  0  0
    4.1935   -8.2132    0.0000 O   0  0  0  0  0  0           0  0  0
    1.0194   -5.9750    0.0000 C   0  0  0  0  0  0           0  0  0
    1.0182   -6.8023    0.0000 C   0  0  0  0  0  0           0  0  0
    1.7331   -7.2152    0.0000 C   0  0  0  0  0  0           0  0  0
    2.4495   -6.8019    0.0000 C   0  0  0  0  0  0           0  0  0
    2.4466   -5.9713    0.0000 C   0  0  0  0  0  0           0  0  0
    1.7313   -5.5622    0.0000 C   0  0  0  0  0  0           0  0  0
    0.3000   -5.5583    0.0000 F   0  0  0  0  0  0           0  0  0
    3.1583   -7.2125    0.0000 C   0  0  0  0  0  0           0  0  0
    8.7125   -7.0542    0.0000 C   0  0  0  0  0  0           0  0  0
 11  2  1  0     0  0
  5  6  1  0     0  0
  3 13  1  0     0  0
 13 10  2  0     0  0
  6  7  1  0     0  0
 13 14  1  0     0  0
  8  1  1  0     0  0
  9 15  2  0     0  0
  4 16  2  0     0  0
  2  3  2  0     0  0
  2  7  1  0     0  0
 17 18  2  0     0  0
  3  4  1  0     0  0
 18 19  1  0     0  0
  4  5  1  0     0  0
 19 20  2  0     0  0
  8 12  1  0     0  0
 20 21  1  0     0  0
  1  9  1  0     0  0
 21 22  2  0     0  0
 22 17  1  0     0  0
  9 10  1  0     0  0
 17 23  1  0     0  0
 10 11  1  0     0  0
 20 24  1  0     0  0
 24  5  1  0     0  0
 11 12  1  0     0  0
  1 25  1  0     0  0
M  END
>  <prID>
946

>  <IDDB>
343671

>  <pIC50_HIV_Integrase>
8

>  <Q>
-2.989168844

>  <Activity_Integrase>
Active_Integrase

NA
NA
NA
NA
$$$$

  Accelrys05311914292D 1   1.00000     0.00000     0

 30 34  0     0  0            999 V2000
    6.4236   -7.2708    0.0000 C   0  0  0  0  0  0           0  0  0
    6.4224   -8.0982    0.0000 C   0  0  0  0  0  0           0  0  0
    7.1372   -8.5110    0.0000 C   0  0  0  0  0  0           0  0  0
    7.8537   -8.0977    0.0000 C   0  0  0  0  0  0           0  0  0
    7.8508   -7.2672    0.0000 C   0  0  0  0  0  0           0  0  0
    7.1354   -6.8580    0.0000 C   0  0  0  0  0  0           0  0  0
    9.9889   -6.0169    0.0000 C   0  0  0  0  0  0           0  0  0
    9.9792   -6.8419    0.0000 C   0  0  0  0  0  0           0  0  0
   10.7603   -7.1078    0.0000 C   0  0  0  0  0  0           0  0  0
   11.2548   -6.4442    0.0000 N   0  0  3  0  0  0           0  0  0
   10.7759   -5.7736    0.0000 C   0  0  0  0  0  0           0  0  0
    9.2852   -7.2697    0.0000 C   0  0  0  0  0  0           0  0  0
    9.0871   -3.3701    0.0000 C   0  0  0  0  0  0           0  0  0
    8.2600   -3.3483    0.0000 C   0  0  0  0  0  0           0  0  0
    7.8294   -4.0525    0.0000 C   0  0  0  0  0  0           0  0  0
    8.2247   -4.7791    0.0000 C   0  0  0  0  0  0           0  0  0
    9.0550   -4.7970    0.0000 C   0  0  0  0  0  0           0  0  0
    9.4819   -4.0920    0.0000 C   0  0  0  0  0  0           0  0  0
    9.2712   -5.6144    0.0000 C   0  0  0  0  0  0           0  0  0
    8.5585   -6.0347    0.0000 C   0  0  0  0  0  0           0  0  0
    8.5671   -6.8601    0.0000 C   0  0  0  0  0  0           0  0  0
    7.9353   -5.5541    0.0000 N   0  0  3  0  0  0           0  0  0
   10.9821   -4.9711    0.0000 O   0  0  0  0  0  0           0  0  0
   10.9827   -7.8987    0.0000 O   0  0  0  0  0  0           0  0  0
   12.0792   -6.4417    0.0000 C   0  0  0  0  0  0           0  0  0
   12.4875   -5.7250    0.0000 C   0  0  0  0  0  0           0  0  0
   13.3125   -5.7250    0.0000 N   0  0  3  0  0  0           0  0  0
   13.7208   -5.0083    0.0000 C   0  0  0  0  0  0           0  0  0
   13.7208   -6.4375    0.0000 C   0  0  0  0  0  0           0  0  0
    7.1333   -5.7625    0.0000 C   0  0  0  0  0  0           0  0  0
  3  4  2  0     0  0
 15 16  1  0     0  0
 16 17  2  0     0  0
  4  5  1  0     0  0
 17 18  1  0     0  0
 18 13  2  0     0  0
  2  3  1  0     0  0
  8  9  1  0     0  0
 19 20  2  0     0  0
  9 10  1  0     0  0
 20 21  1  0     0  0
 21 12  2  0     0  0
  7 19  1  0     0  0
 10 11  1  0     0  0
 22 20  1  0     0  0
 19 17  1  0     0  0
 16 22  1  0     0  0
 11  7  1  0     0  0
 11 23  2  0     0  0
  5  6  2  0     0  0
  9 24  2  0     0  0
  8 12  1  0     0  0
 10 25  1  0     0  0
  6  1  1  0     0  0
 25 26  1  0     0  0
  7  8  2  0     0  0
 26 27  1  0     0  0
 13 14  1  0     0  0
 27 28  1  0     0  0
  1  2  2  0     0  0
 27 29  1  0     0  0
 21  5  1  0     0  0
 14 15  2  0     0  0
 22 30  1  0     0  0
M  END
>  <prID>
947

>  <IDDB>
345144

>  <pIC50_HIV_Integrase>
4.243516462

>  <Q>
2.163601412

>  <Activity_Integrase>
Inactive_Integrase

NA
NA
NA
NA
$$$$

  Accelrys05311914292D 1   1.00000     0.00000     0

 26 28  0     0  0            999 V2000
    3.4077   -2.4346    0.0000 C   0  0  0  0  0  0           0  0  0
    4.1202   -2.8471    0.0000 C   0  0  0  0  0  0           0  0  0
    4.8327   -2.4346    0.0000 C   0  0  0  0  0  0           0  0  0
    5.5452   -2.8471    0.0000 C   0  0  0  0  0  0           0  0  0
    6.2577   -2.4346    0.0000 C   0  0  0  0  0  0           0  0  0
    6.9702   -2.8471    0.0000 O   0  0  0  0  0  0           0  0  0
    4.0762    0.9732    0.0000 C   0  0  0  0  0  0           0  0  0
    4.0750    0.1458    0.0000 C   0  0  0  0  0  0           0  0  0
    4.7898   -0.2670    0.0000 C   0  0  0  0  0  0           0  0  0
    5.5063    0.1463    0.0000 C   0  0  0  0  0  0           0  0  0
    5.5034    0.9768    0.0000 C   0  0  0  0  0  0           0  0  0
    4.7880    1.3860    0.0000 C   0  0  0  0  0  0           0  0  0
    2.6162   -2.2019    0.0000 C   0  0  0  0  0  0           0  0  0
    3.8752   -1.7548    0.0000 C   0  0  0  0  0  0           0  0  0
    3.3705   -1.0990    0.0000 N   0  0  3  0  0  0           0  0  0
    2.5951   -1.3783    0.0000 C   0  0  0  0  0  0           0  0  0
    1.1861   -1.3750    0.0000 C   0  0  0  0  0  0           0  0  0
    1.1849   -2.2023    0.0000 C   0  0  0  0  0  0           0  0  0
    1.8997   -2.6152    0.0000 C   0  0  0  0  0  0           0  0  0
    1.8979   -0.9622    0.0000 C   0  0  0  0  0  0           0  0  0
    3.3625   -0.2708    0.0000 C   0  0  0  0  0  0           0  0  0
    4.1125   -3.6708    0.0000 O   0  0  0  0  0  0           0  0  0
    5.5375   -3.6708    0.0000 O   0  0  0  0  0  0           0  0  0
    6.2500   -1.6083    0.0000 O   0  0  0  0  0  0           0  0  0
    7.6792   -2.4292    0.0000 C   0  0  0  0  0  0           0  0  0
    8.3917   -2.8417    0.0000 C   0  0  0  0  0  0           0  0  0
  3  4  2  0     0  0
  7  8  2  0     0  0
  1 14  2  0     0  0
 14 15  1  0     0  0
 15 16  1  0     0  0
 16 13  1  0     0  0
  8  9  1  0     0  0
  4  5  1  0     0  0
 17 18  2  0     0  0
  9 10  2  0     0  0
 18 19  1  0     0  0
 19 13  2  0     0  0
  2  3  1  0     0  0
 16 20  2  0     0  0
 20 17  1  0     0  0
 10 11  1  0     0  0
 15 21  1  0     0  0
 21  8  1  0     0  0
  5  6  1  0     0  0
  2 22  2  0     0  0
 11 12  2  0     0  0
  4 23  1  0     0  0
 12  7  1  0     0  0
  5 24  2  0     0  0
 13  1  1  0     0  0
  6 25  1  0     0  0
  1  2  1  0     0  0
 25 26  1  0     0  0
M  END
>  <prID>
948

>  <IDDB>
346037

>  <pIC50_HIV_Integrase>
5.26760624

>  <Q>
0.346665981

>  <Activity_Integrase>
Inactive_Integrase

NA
NA
NA
NA
$$$$

  Accelrys05311914292D 1   1.00000     0.00000     0

 27 29  0     0  0            999 V2000
    2.8493   -4.4554    0.0000 C   0  0  0  0  0  0           0  0  0
    3.5618   -4.8679    0.0000 C   0  0  0  0  0  0           0  0  0
    4.2743   -4.4554    0.0000 C   0  0  0  0  0  0           0  0  0
    4.9868   -4.8679    0.0000 C   0  0  0  0  0  0           0  0  0
    5.6993   -4.4554    0.0000 C   0  0  0  0  0  0           0  0  0
    6.4118   -4.8679    0.0000 O   0  0  0  0  0  0           0  0  0
    3.5178   -1.0476    0.0000 C   0  0  0  0  0  0           0  0  0
    3.5167   -1.8750    0.0000 C   0  0  0  0  0  0           0  0  0
    4.2315   -2.2879    0.0000 C   0  0  0  0  0  0           0  0  0
    4.9479   -1.8745    0.0000 C   0  0  0  0  0  0           0  0  0
    4.9451   -1.0440    0.0000 C   0  0  0  0  0  0           0  0  0
    4.2297   -0.6349    0.0000 C   0  0  0  0  0  0           0  0  0
    2.0578   -4.2227    0.0000 C   0  0  0  0  0  0           0  0  0
    3.3169   -3.7756    0.0000 C   0  0  0  0  0  0           0  0  0
    2.8121   -3.1198    0.0000 N   0  0  3  0  0  0           0  0  0
    2.0368   -3.3992    0.0000 C   0  0  0  0  0  0           0  0  0
    0.6277   -3.3958    0.0000 C   0  0  0  0  0  0           0  0  0
    0.6266   -4.2232    0.0000 C   0  0  0  0  0  0           0  0  0
    1.3414   -4.6360    0.0000 C   0  0  0  0  0  0           0  0  0
    1.3396   -2.9830    0.0000 C   0  0  0  0  0  0           0  0  0
    2.8042   -2.2917    0.0000 C   0  0  0  0  0  0           0  0  0
    3.5542   -5.6917    0.0000 O   0  0  0  0  0  0           0  0  0
    4.9792   -5.6917    0.0000 O   0  0  0  0  0  0           0  0  0
    5.6917   -3.6292    0.0000 O   0  0  0  0  0  0           0  0  0
    7.1208   -4.4500    0.0000 C   0  0  0  0  0  0           0  0  0
    7.8333   -4.8625    0.0000 C   0  0  0  0  0  0           0  0  0
    5.6542   -0.6250    0.0000 F   0  0  0  0  0  0           0  0  0
  7  8  2  0     0  0
  1 14  2  0     0  0
 14 15  1  0     0  0
 15 16  1  0     0  0
 16 13  1  0     0  0
  8  9  1  0     0  0
  4  5  1  0     0  0
 17 18  2  0     0  0
  9 10  2  0     0  0
 18 19  1  0     0  0
 19 13  2  0     0  0
  2  3  1  0     0  0
 16 20  2  0     0  0
 20 17  1  0     0  0
 10 11  1  0     0  0
 15 21  1  0     0  0
 21  8  1  0     0  0
  5  6  1  0     0  0
  2 22  2  0     0  0
 11 12  2  0     0  0
  4 23  1  0     0  0
 12  7  1  0     0  0
  5 24  2  0     0  0
 13  1  1  0     0  0
  6 25  1  0     0  0
  1  2  1  0     0  0
 25 26  1  0     0  0
  3  4  2  0     0  0
 11 27  1  0     0  0
M  END
>  <prID>
949

>  <IDDB>
346038

>  <pIC50_HIV_Integrase>
5.823908741

>  <Q>
-2.144245386

>  <Activity_Integrase>
Inactive_Integrase

NA
NA
NA
NA
$$$$

  Accelrys05311914292D 1   1.00000     0.00000     0

 27 29  0     0  0            999 V2000
    2.8493   -4.4554    0.0000 C   0  0  0  0  0  0           0  0  0
    3.5618   -4.8679    0.0000 C   0  0  0  0  0  0           0  0  0
    4.2743   -4.4554    0.0000 C   0  0  0  0  0  0           0  0  0
    4.9868   -4.8679    0.0000 C   0  0  0  0  0  0           0  0  0
    5.6993   -4.4554    0.0000 C   0  0  0  0  0  0           0  0  0
    6.4118   -4.8679    0.0000 O   0  0  0  0  0  0           0  0  0
    3.5178   -1.0476    0.0000 C   0  0  0  0  0  0           0  0  0
    3.5167   -1.8750    0.0000 C   0  0  0  0  0  0           0  0  0
    4.2315   -2.2879    0.0000 C   0  0  0  0  0  0           0  0  0
    4.9479   -1.8745    0.0000 C   0  0  0  0  0  0           0  0  0
    4.9451   -1.0440    0.0000 C   0  0  0  0  0  0           0  0  0
    4.2297   -0.6349    0.0000 C   0  0  0  0  0  0           0  0  0
    2.0578   -4.2227    0.0000 C   0  0  0  0  0  0           0  0  0
    3.3169   -3.7756    0.0000 C   0  0  0  0  0  0           0  0  0
    2.8121   -3.1198    0.0000 N   0  0  3  0  0  0           0  0  0
    2.0368   -3.3992    0.0000 C   0  0  0  0  0  0           0  0  0
    0.6277   -3.3958    0.0000 C   0  0  0  0  0  0           0  0  0
    0.6266   -4.2232    0.0000 C   0  0  0  0  0  0           0  0  0
    1.3414   -4.6360    0.0000 C   0  0  0  0  0  0           0  0  0
    1.3396   -2.9830    0.0000 C   0  0  0  0  0  0           0  0  0
    2.8042   -2.2917    0.0000 C   0  0  0  0  0  0           0  0  0
    3.5542   -5.6917    0.0000 O   0  0  0  0  0  0           0  0  0
    4.9792   -5.6917    0.0000 O   0  0  0  0  0  0           0  0  0
    5.6917   -3.6292    0.0000 O   0  0  0  0  0  0           0  0  0
    7.1208   -4.4500    0.0000 C   0  0  0  0  0  0           0  0  0
    7.8333   -4.8625    0.0000 C   0  0  0  0  0  0           0  0  0
   -0.0917   -4.6292    0.0000 Cl  0  0  0  0  0  0           0  0  0
  7  8  2  0     0  0
  1 14  2  0     0  0
 14 15  1  0     0  0
 15 16  1  0     0  0
 16 13  1  0     0  0
  8  9  1  0     0  0
  4  5  1  0     0  0
 17 18  2  0     0  0
  9 10  2  0     0  0
 18 19  1  0     0  0
 19 13  2  0     0  0
  2  3  1  0     0  0
 16 20  2  0     0  0
 20 17  1  0     0  0
 10 11  1  0     0  0
 15 21  1  0     0  0
 21  8  1  0     0  0
  5  6  1  0     0  0
  2 22  2  0     0  0
 11 12  2  0     0  0
  4 23  1  0     0  0
 12  7  1  0     0  0
  5 24  2  0     0  0
 13  1  1  0     0  0
  6 25  1  0     0  0
  1  2  1  0     0  0
 25 26  1  0     0  0
  3  4  2  0     0  0
 18 27  1  0     0  0
M  END
>  <prID>
950

>  <IDDB>
346039

>  <pIC50_HIV_Integrase>
7.522878745

>  <Q>
-0.600650327

>  <Activity_Integrase>
Active_Integrase

NA
NA
NA
NA
$$$$

  Accelrys05311914292D 1   1.00000     0.00000     0

 28 30  0     0  0            999 V2000
    0.5702   -4.3929    0.0000 C   0  0  0  0  0  0           0  0  0
    1.2827   -4.8054    0.0000 C   0  0  0  0  0  0           0  0  0
    1.9952   -4.3929    0.0000 C   0  0  0  0  0  0           0  0  0
    2.7077   -4.8054    0.0000 C   0  0  0  0  0  0           0  0  0
    3.4202   -4.3929    0.0000 C   0  0  0  0  0  0           0  0  0
    4.1327   -4.8054    0.0000 O   0  0  0  0  0  0           0  0  0
    1.2387   -0.9851    0.0000 C   0  0  0  0  0  0           0  0  0
    1.2375   -1.8125    0.0000 C   0  0  0  0  0  0           0  0  0
    1.9523   -2.2254    0.0000 C   0  0  0  0  0  0           0  0  0
    2.6688   -1.8120    0.0000 C   0  0  0  0  0  0           0  0  0
    2.6659   -0.9815    0.0000 C   0  0  0  0  0  0           0  0  0
    1.9505   -0.5724    0.0000 C   0  0  0  0  0  0           0  0  0
   -0.2213   -4.1602    0.0000 C   0  0  0  0  0  0           0  0  0
    1.0377   -3.7131    0.0000 C   0  0  0  0  0  0           0  0  0
    0.5330   -3.0573    0.0000 N   0  0  3  0  0  0           0  0  0
   -0.2424   -3.3367    0.0000 C   0  0  0  0  0  0           0  0  0
   -1.6514   -3.3333    0.0000 C   0  0  0  0  0  0           0  0  0
   -1.6526   -4.1607    0.0000 C   0  0  0  0  0  0           0  0  0
   -0.9378   -4.5735    0.0000 C   0  0  0  0  0  0           0  0  0
   -0.9396   -2.9205    0.0000 C   0  0  0  0  0  0           0  0  0
    0.5250   -2.2292    0.0000 C   0  0  0  0  0  0           0  0  0
    1.2750   -5.6292    0.0000 O   0  0  0  0  0  0           0  0  0
    2.7000   -5.6292    0.0000 O   0  0  0  0  0  0           0  0  0
    3.4125   -3.5667    0.0000 O   0  0  0  0  0  0           0  0  0
    4.8417   -4.3875    0.0000 C   0  0  0  0  0  0           0  0  0
    5.5542   -4.8000    0.0000 C   0  0  0  0  0  0           0  0  0
   -2.3708   -4.5667    0.0000 Cl  0  0  0  0  0  0           0  0  0
    3.3750   -0.5625    0.0000 F   0  0  0  0  0  0           0  0  0
  1 14  2  0     0  0
 14 15  1  0     0  0
 15 16  1  0     0  0
 16 13  1  0     0  0
  8  9  1  0     0  0
  4  5  1  0     0  0
 17 18  2  0     0  0
  9 10  2  0     0  0
 18 19  1  0     0  0
 19 13  2  0     0  0
  2  3  1  0     0  0
 16 20  2  0     0  0
 20 17  1  0     0  0
 10 11  1  0     0  0
 15 21  1  0     0  0
 21  8  1  0     0  0
  5  6  1  0     0  0
  2 22  2  0     0  0
 11 12  2  0     0  0
  4 23  1  0     0  0
 12  7  1  0     0  0
  5 24  2  0     0  0
 13  1  1  0     0  0
  6 25  1  0     0  0
  1  2  1  0     0  0
 25 26  1  0     0  0
  3  4  2  0     0  0
 18 27  1  0     0  0
  7  8  2  0     0  0
 11 28  1  0     0  0
M  END
>  <prID>
951

>  <IDDB>
346040

>  <pIC50_HIV_Integrase>
7.15490196

>  <Q>
-3.091561695

>  <Activity_Integrase>
Active_Integrase

NA
NA
NA
NA
$$$$

  Accelrys05311914292D 1   1.00000     0.00000     0

 28 30  0     0  0            999 V2000
    0.5702   -4.3929    0.0000 C   0  0  0  0  0  0           0  0  0
    1.2827   -4.8054    0.0000 C   0  0  0  0  0  0           0  0  0
    1.9952   -4.3929    0.0000 C   0  0  0  0  0  0           0  0  0
    2.7077   -4.8054    0.0000 C   0  0  0  0  0  0           0  0  0
    3.4202   -4.3929    0.0000 C   0  0  0  0  0  0           0  0  0
    4.1327   -4.8054    0.0000 O   0  0  0  0  0  0           0  0  0
    1.2387   -0.9851    0.0000 C   0  0  0  0  0  0           0  0  0
    1.2375   -1.8125    0.0000 C   0  0  0  0  0  0           0  0  0
    1.9523   -2.2254    0.0000 C   0  0  0  0  0  0           0  0  0
    2.6688   -1.8120    0.0000 C   0  0  0  0  0  0           0  0  0
    2.6659   -0.9815    0.0000 C   0  0  0  0  0  0           0  0  0
    1.9505   -0.5724    0.0000 C   0  0  0  0  0  0           0  0  0
   -0.2213   -4.1602    0.0000 C   0  0  0  0  0  0           0  0  0
    1.0377   -3.7131    0.0000 C   0  0  0  0  0  0           0  0  0
    0.5330   -3.0573    0.0000 N   0  0  3  0  0  0           0  0  0
   -0.2424   -3.3367    0.0000 C   0  0  0  0  0  0           0  0  0
   -1.6514   -3.3333    0.0000 C   0  0  0  0  0  0           0  0  0
   -1.6526   -4.1607    0.0000 C   0  0  0  0  0  0           0  0  0
   -0.9378   -4.5735    0.0000 C   0  0  0  0  0  0           0  0  0
   -0.9396   -2.9205    0.0000 C   0  0  0  0  0  0           0  0  0
    0.5250   -2.2292    0.0000 C   0  0  0  0  0  0           0  0  0
    1.2750   -5.6292    0.0000 O   0  0  0  0  0  0           0  0  0
    2.7000   -5.6292    0.0000 O   0  0  0  0  0  0           0  0  0
    3.4125   -3.5667    0.0000 O   0  0  0  0  0  0           0  0  0
    4.8417   -4.3875    0.0000 C   0  0  0  0  0  0           0  0  0
    5.5542   -4.8000    0.0000 C   0  0  0  0  0  0           0  0  0
   -2.3708   -4.5667    0.0000 O   0  0  0  0  0  0           0  0  0
   -3.0875   -4.1542    0.0000 C   0  0  0  0  0  0           0  0  0
  1 14  2  0     0  0
 14 15  1  0     0  0
 15 16  1  0     0  0
 16 13  1  0     0  0
  8  9  1  0     0  0
  4  5  1  0     0  0
 17 18  2  0     0  0
  9 10  2  0     0  0
 18 19  1  0     0  0
 19 13  2  0     0  0
  2  3  1  0     0  0
 16 20  2  0     0  0
 20 17  1  0     0  0
 10 11  1  0     0  0
 15 21  1  0     0  0
 21  8  1  0     0  0
  5  6  1  0     0  0
  2 22  2  0     0  0
 11 12  2  0     0  0
  4 23  1  0     0  0
 12  7  1  0     0  0
  5 24  2  0     0  0
 13  1  1  0     0  0
  6 25  1  0     0  0
  1  2  1  0     0  0
 25 26  1  0     0  0
  3  4  2  0     0  0
 18 27  1  0     0  0
  7  8  2  0     0  0
 27 28  1  0     0  0
M  END
>  <prID>
952

>  <IDDB>
346041

>  <pIC50_HIV_Integrase>
6.167491087

>  <Q>
0.09028988

>  <Activity_Integrase>
Active_Integrase

NA
NA
NA
NA
$$$$

  Accelrys05311914292D 1   1.00000     0.00000     0

 29 31  0     0  0            999 V2000
    0.5702   -4.3929    0.0000 C   0  0  0  0  0  0           0  0  0
    1.2827   -4.8054    0.0000 C   0  0  0  0  0  0           0  0  0
    1.9952   -4.3929    0.0000 C   0  0  0  0  0  0           0  0  0
    2.7077   -4.8054    0.0000 C   0  0  0  0  0  0           0  0  0
    3.4202   -4.3929    0.0000 C   0  0  0  0  0  0           0  0  0
    4.1327   -4.8054    0.0000 O   0  0  0  0  0  0           0  0  0
    1.2387   -0.9851    0.0000 C   0  0  0  0  0  0           0  0  0
    1.2375   -1.8125    0.0000 C   0  0  0  0  0  0           0  0  0
    1.9523   -2.2254    0.0000 C   0  0  0  0  0  0           0  0  0
    2.6688   -1.8120    0.0000 C   0  0  0  0  0  0           0  0  0
    2.6659   -0.9815    0.0000 C   0  0  0  0  0  0           0  0  0
    1.9505   -0.5724    0.0000 C   0  0  0  0  0  0           0  0  0
   -0.2213   -4.1602    0.0000 C   0  0  0  0  0  0           0  0  0
    1.0377   -3.7131    0.0000 C   0  0  0  0  0  0           0  0  0
    0.5330   -3.0573    0.0000 N   0  0  3  0  0  0           0  0  0
   -0.2424   -3.3367    0.0000 C   0  0  0  0  0  0           0  0  0
   -1.6514   -3.3333    0.0000 C   0  0  0  0  0  0           0  0  0
   -1.6526   -4.1607    0.0000 C   0  0  0  0  0  0           0  0  0
   -0.9378   -4.5735    0.0000 C   0  0  0  0  0  0           0  0  0
   -0.9396   -2.9205    0.0000 C   0  0  0  0  0  0           0  0  0
    0.5250   -2.2292    0.0000 C   0  0  0  0  0  0           0  0  0
    1.2750   -5.6292    0.0000 O   0  0  0  0  0  0           0  0  0
    2.7000   -5.6292    0.0000 O   0  0  0  0  0  0           0  0  0
    3.4125   -3.5667    0.0000 O   0  0  0  0  0  0           0  0  0
    4.8417   -4.3875    0.0000 C   0  0  0  0  0  0           0  0  0
    5.5542   -4.8000    0.0000 C   0  0  0  0  0  0           0  0  0
   -2.3708   -4.5667    0.0000 O   0  0  0  0  0  0           0  0  0
   -3.0875   -4.1542    0.0000 C   0  0  0  0  0  0           0  0  0
    3.3750   -0.5625    0.0000 F   0  0  0  0  0  0           0  0  0
  1 14  2  0     0  0
 14 15  1  0     0  0
 15 16  1  0     0  0
 16 13  1  0     0  0
  8  9  1  0     0  0
  4  5  1  0     0  0
 17 18  2  0     0  0
  9 10  2  0     0  0
 18 19  1  0     0  0
 19 13  2  0     0  0
  2  3  1  0     0  0
 16 20  2  0     0  0
 20 17  1  0     0  0
 10 11  1  0     0  0
 15 21  1  0     0  0
 21  8  1  0     0  0
  5  6  1  0     0  0
  2 22  2  0     0  0
 11 12  2  0     0  0
  4 23  1  0     0  0
 12  7  1  0     0  0
  5 24  2  0     0  0
 13  1  1  0     0  0
  6 25  1  0     0  0
  1  2  1  0     0  0
 25 26  1  0     0  0
  3  4  2  0     0  0
 18 27  1  0     0  0
  7  8  2  0     0  0
 27 28  1  0     0  0
 11 29  1  0     0  0
M  END
>  <prID>
953

>  <IDDB>
346042

>  <pIC50_HIV_Integrase>
5.6094815305

>  <Q>
-2.400621487

>  <Activity_Integrase>
Inactive_Integrase

NA
NA
NA
NA
$$$$

  Accelrys05311914292D 1   1.00000     0.00000     0

 25 27  0     0  0            999 V2000
    0.5702   -4.3929    0.0000 C   0  0  0  0  0  0           0  0  0
    1.2827   -4.8054    0.0000 C   0  0  0  0  0  0           0  0  0
    1.9952   -4.3929    0.0000 C   0  0  0  0  0  0           0  0  0
    2.7077   -4.8054    0.0000 C   0  0  0  0  0  0           0  0  0
    3.4202   -4.3929    0.0000 C   0  0  0  0  0  0           0  0  0
    4.1327   -4.8054    0.0000 O   0  0  0  0  0  0           0  0  0
    1.2387   -0.9851    0.0000 C   0  0  0  0  0  0           0  0  0
    1.2375   -1.8125    0.0000 C   0  0  0  0  0  0           0  0  0
    1.9523   -2.2254    0.0000 C   0  0  0  0  0  0           0  0  0
    2.6688   -1.8120    0.0000 C   0  0  0  0  0  0           0  0  0
    2.6659   -0.9815    0.0000 C   0  0  0  0  0  0           0  0  0
    1.9505   -0.5724    0.0000 C   0  0  0  0  0  0           0  0  0
   -0.2213   -4.1602    0.0000 C   0  0  0  0  0  0           0  0  0
    1.0377   -3.7131    0.0000 C   0  0  0  0  0  0           0  0  0
    0.5330   -3.0573    0.0000 N   0  0  3  0  0  0           0  0  0
   -0.2424   -3.3367    0.0000 C   0  0  0  0  0  0           0  0  0
   -1.6514   -3.3333    0.0000 C   0  0  0  0  0  0           0  0  0
   -1.6526   -4.1607    0.0000 C   0  0  0  0  0  0           0  0  0
   -0.9378   -4.5735    0.0000 C   0  0  0  0  0  0           0  0  0
   -0.9396   -2.9205    0.0000 C   0  0  0  0  0  0           0  0  0
    0.5250   -2.2292    0.0000 C   0  0  0  0  0  0           0  0  0
    1.2750   -5.6292    0.0000 O   0  0  0  0  0  0           0  0  0
    2.7000   -5.6292    0.0000 O   0  0  0  0  0  0           0  0  0
    3.4125   -3.5667    0.0000 O   0  0  0  0  0  0           0  0  0
    3.3750   -0.5625    0.0000 F   0  0  0  0  0  0           0  0  0
  1  2  1  0     0  0
  3  4  2  0     0  0
  7  8  2  0     0  0
  1 14  2  0     0  0
 14 15  1  0     0  0
 15 16  1  0     0  0
 16 13  1  0     0  0
  8  9  1  0     0  0
  4  5  1  0     0  0
 17 18  2  0     0  0
  9 10  2  0     0  0
 18 19  1  0     0  0
 19 13  2  0     0  0
  2  3  1  0     0  0
 16 20  2  0     0  0
 20 17  1  0     0  0
 10 11  1  0     0  0
 15 21  1  0     0  0
 21  8  1  0     0  0
  5  6  1  0     0  0
  2 22  2  0     0  0
 11 12  2  0     0  0
  4 23  1  0     0  0
 12  7  1  0     0  0
  5 24  2  0     0  0
 13  1  1  0     0  0
 11 25  1  0     0  0
M  END
>  <prID>
954

>  <IDDB>
346043

>  <pIC50_HIV_Integrase>
7.823908741

>  <Q>
-2.268525351

>  <Activity_Integrase>
Active_Integrase

NA
NA
NA
NA
$$$$

  Accelrys05311914292D 1   1.00000     0.00000     0

 25 27  0     0  0            999 V2000
    0.5702   -4.3929    0.0000 C   0  0  0  0  0  0           0  0  0
    1.2827   -4.8054    0.0000 C   0  0  0  0  0  0           0  0  0
    1.9952   -4.3929    0.0000 C   0  0  0  0  0  0           0  0  0
    2.7077   -4.8054    0.0000 C   0  0  0  0  0  0           0  0  0
    3.4202   -4.3929    0.0000 C   0  0  0  0  0  0           0  0  0
    4.1327   -4.8054    0.0000 O   0  0  0  0  0  0           0  0  0
    1.2387   -0.9851    0.0000 C   0  0  0  0  0  0           0  0  0
    1.2375   -1.8125    0.0000 C   0  0  0  0  0  0           0  0  0
    1.9523   -2.2254    0.0000 C   0  0  0  0  0  0           0  0  0
    2.6688   -1.8120    0.0000 C   0  0  0  0  0  0           0  0  0
    2.6659   -0.9815    0.0000 C   0  0  0  0  0  0           0  0  0
    1.9505   -0.5724    0.0000 C   0  0  0  0  0  0           0  0  0
   -0.2213   -4.1602    0.0000 C   0  0  0  0  0  0           0  0  0
    1.0377   -3.7131    0.0000 C   0  0  0  0  0  0           0  0  0
    0.5330   -3.0573    0.0000 N   0  0  3  0  0  0           0  0  0
   -0.2424   -3.3367    0.0000 C   0  0  0  0  0  0           0  0  0
   -1.6514   -3.3333    0.0000 C   0  0  0  0  0  0           0  0  0
   -1.6526   -4.1607    0.0000 C   0  0  0  0  0  0           0  0  0
   -0.9378   -4.5735    0.0000 C   0  0  0  0  0  0           0  0  0
   -0.9396   -2.9205    0.0000 C   0  0  0  0  0  0           0  0  0
    0.5250   -2.2292    0.0000 C   0  0  0  0  0  0           0  0  0
    1.2750   -5.6292    0.0000 O   0  0  0  0  0  0           0  0  0
    2.7000   -5.6292    0.0000 O   0  0  0  0  0  0           0  0  0
    3.4125   -3.5667    0.0000 O   0  0  0  0  0  0           0  0  0
   -2.3708   -4.5667    0.0000 Cl  0  0  0  0  0  0           0  0  0
  1  2  1  0     0  0
  3  4  2  0     0  0
  7  8  2  0     0  0
  1 14  2  0     0  0
 14 15  1  0     0  0
 15 16  1  0     0  0
 16 13  1  0     0  0
  8  9  1  0     0  0
  4  5  1  0     0  0
 17 18  2  0     0  0
  9 10  2  0     0  0
 18 19  1  0     0  0
 19 13  2  0     0  0
  2  3  1  0     0  0
 16 20  2  0     0  0
 20 17  1  0     0  0
 10 11  1  0     0  0
 15 21  1  0     0  0
 21  8  1  0     0  0
  5  6  1  0     0  0
  2 22  2  0     0  0
 11 12  2  0     0  0
  4 23  1  0     0  0
 12  7  1  0     0  0
  5 24  2  0     0  0
 13  1  1  0     0  0
 18 25  1  0     0  0
M  END
>  <prID>
955

>  <IDDB>
346044

>  <pIC50_HIV_Integrase>
7

>  <Q>
-0.724930293

>  <Activity_Integrase>
Active_Integrase

NA
NA
NA
NA
$$$$

  Accelrys05311914292D 1   1.00000     0.00000     0

 26 28  0     0  0            999 V2000
    0.5702   -4.3929    0.0000 C   0  0  0  0  0  0           0  0  0
    1.2827   -4.8054    0.0000 C   0  0  0  0  0  0           0  0  0
    1.9952   -4.3929    0.0000 C   0  0  0  0  0  0           0  0  0
    2.7077   -4.8054    0.0000 C   0  0  0  0  0  0           0  0  0
    3.4202   -4.3929    0.0000 C   0  0  0  0  0  0           0  0  0
    4.1327   -4.8054    0.0000 O   0  0  0  0  0  0           0  0  0
    1.2387   -0.9851    0.0000 C   0  0  0  0  0  0           0  0  0
    1.2375   -1.8125    0.0000 C   0  0  0  0  0  0           0  0  0
    1.9523   -2.2254    0.0000 C   0  0  0  0  0  0           0  0  0
    2.6688   -1.8120    0.0000 C   0  0  0  0  0  0           0  0  0
    2.6659   -0.9815    0.0000 C   0  0  0  0  0  0           0  0  0
    1.9505   -0.5724    0.0000 C   0  0  0  0  0  0           0  0  0
   -0.2213   -4.1602    0.0000 C   0  0  0  0  0  0           0  0  0
    1.0377   -3.7131    0.0000 C   0  0  0  0  0  0           0  0  0
    0.5330   -3.0573    0.0000 N   0  0  3  0  0  0           0  0  0
   -0.2424   -3.3367    0.0000 C   0  0  0  0  0  0           0  0  0
   -1.6514   -3.3333    0.0000 C   0  0  0  0  0  0           0  0  0
   -1.6526   -4.1607    0.0000 C   0  0  0  0  0  0           0  0  0
   -0.9378   -4.5735    0.0000 C   0  0  0  0  0  0           0  0  0
   -0.9396   -2.9205    0.0000 C   0  0  0  0  0  0           0  0  0
    0.5250   -2.2292    0.0000 C   0  0  0  0  0  0           0  0  0
    1.2750   -5.6292    0.0000 O   0  0  0  0  0  0           0  0  0
    2.7000   -5.6292    0.0000 O   0  0  0  0  0  0           0  0  0
    3.4125   -3.5667    0.0000 O   0  0  0  0  0  0           0  0  0
   -2.3708   -4.5667    0.0000 Cl  0  0  0  0  0  0           0  0  0
    3.3750   -0.5625    0.0000 F   0  0  0  0  0  0           0  0  0
  3  4  2  0     0  0
  7  8  2  0     0  0
  1 14  2  0     0  0
 14 15  1  0     0  0
 15 16  1  0     0  0
 16 13  1  0     0  0
  8  9  1  0     0  0
  4  5  1  0     0  0
 17 18  2  0     0  0
  9 10  2  0     0  0
 18 19  1  0     0  0
 19 13  2  0     0  0
  2  3  1  0     0  0
 16 20  2  0     0  0
 20 17  1  0     0  0
 10 11  1  0     0  0
 15 21  1  0     0  0
 21  8  1  0     0  0
  5  6  1  0     0  0
  2 22  2  0     0  0
 11 12  2  0     0  0
  4 23  1  0     0  0
 12  7  1  0     0  0
  5 24  2  0     0  0
 13  1  1  0     0  0
 18 25  1  0     0  0
  1  2  1  0     0  0
 11 26  1  0     0  0
M  END
>  <prID>
956

>  <IDDB>
346045

>  <pIC50_HIV_Integrase>
8

>  <Q>
-3.21584166

>  <Activity_Integrase>
Active_Integrase

NA
NA
NA
NA
$$$$

  Accelrys05311914292D 1   1.00000     0.00000     0

 26 28  0     0  0            999 V2000
    0.5702   -4.3929    0.0000 C   0  0  0  0  0  0           0  0  0
    1.2827   -4.8054    0.0000 C   0  0  0  0  0  0           0  0  0
    1.9952   -4.3929    0.0000 C   0  0  0  0  0  0           0  0  0
    2.7077   -4.8054    0.0000 C   0  0  0  0  0  0           0  0  0
    3.4202   -4.3929    0.0000 C   0  0  0  0  0  0           0  0  0
    4.1327   -4.8054    0.0000 O   0  0  0  0  0  0           0  0  0
    1.2387   -0.9851    0.0000 C   0  0  0  0  0  0           0  0  0
    1.2375   -1.8125    0.0000 C   0  0  0  0  0  0           0  0  0
    1.9523   -2.2254    0.0000 C   0  0  0  0  0  0           0  0  0
    2.6688   -1.8120    0.0000 C   0  0  0  0  0  0           0  0  0
    2.6659   -0.9815    0.0000 C   0  0  0  0  0  0           0  0  0
    1.9505   -0.5724    0.0000 C   0  0  0  0  0  0           0  0  0
   -0.2213   -4.1602    0.0000 C   0  0  0  0  0  0           0  0  0
    1.0377   -3.7131    0.0000 C   0  0  0  0  0  0           0  0  0
    0.5330   -3.0573    0.0000 N   0  0  3  0  0  0           0  0  0
   -0.2424   -3.3367    0.0000 C   0  0  0  0  0  0           0  0  0
   -1.6514   -3.3333    0.0000 C   0  0  0  0  0  0           0  0  0
   -1.6526   -4.1607    0.0000 C   0  0  0  0  0  0           0  0  0
   -0.9378   -4.5735    0.0000 C   0  0  0  0  0  0           0  0  0
   -0.9396   -2.9205    0.0000 C   0  0  0  0  0  0           0  0  0
    0.5250   -2.2292    0.0000 C   0  0  0  0  0  0           0  0  0
    1.2750   -5.6292    0.0000 O   0  0  0  0  0  0           0  0  0
    2.7000   -5.6292    0.0000 O   0  0  0  0  0  0           0  0  0
    3.4125   -3.5667    0.0000 O   0  0  0  0  0  0           0  0  0
   -2.3708   -4.5667    0.0000 O   0  0  0  0  0  0           0  0  0
   -3.0875   -4.1542    0.0000 C   0  0  0  0  0  0           0  0  0
  3  4  2  0     0  0
  7  8  2  0     0  0
  1 14  2  0     0  0
 14 15  1  0     0  0
 15 16  1  0     0  0
 16 13  1  0     0  0
  8  9  1  0     0  0
  4  5  1  0     0  0
 17 18  2  0     0  0
  9 10  2  0     0  0
 18 19  1  0     0  0
 19 13  2  0     0  0
  2  3  1  0     0  0
 16 20  2  0     0  0
 20 17  1  0     0  0
 10 11  1  0     0  0
 15 21  1  0     0  0
 21  8  1  0     0  0
  5  6  1  0     0  0
  2 22  2  0     0  0
 11 12  2  0     0  0
  4 23  1  0     0  0
 12  7  1  0     0  0
  5 24  2  0     0  0
 13  1  1  0     0  0
 18 25  1  0     0  0
  1  2  1  0     0  0
 25 26  1  0     0  0
M  END
>  <prID>
957

>  <IDDB>
346046

>  <pIC50_HIV_Integrase>
7.677780705

>  <Q>
-0.033990085

>  <Activity_Integrase>
Active_Integrase

NA
NA
NA
NA
$$$$

  Accelrys05311914292D 1   1.00000     0.00000     0

 27 29  0     0  0            999 V2000
    0.5702   -4.3929    0.0000 C   0  0  0  0  0  0           0  0  0
    1.2827   -4.8054    0.0000 C   0  0  0  0  0  0           0  0  0
    1.9952   -4.3929    0.0000 C   0  0  0  0  0  0           0  0  0
    2.7077   -4.8054    0.0000 C   0  0  0  0  0  0           0  0  0
    3.4202   -4.3929    0.0000 C   0  0  0  0  0  0           0  0  0
    4.1327   -4.8054    0.0000 O   0  0  0  0  0  0           0  0  0
    1.2387   -0.9851    0.0000 C   0  0  0  0  0  0           0  0  0
    1.2375   -1.8125    0.0000 C   0  0  0  0  0  0           0  0  0
    1.9523   -2.2254    0.0000 C   0  0  0  0  0  0           0  0  0
    2.6688   -1.8120    0.0000 C   0  0  0  0  0  0           0  0  0
    2.6659   -0.9815    0.0000 C   0  0  0  0  0  0           0  0  0
    1.9505   -0.5724    0.0000 C   0  0  0  0  0  0           0  0  0
   -0.2213   -4.1602    0.0000 C   0  0  0  0  0  0           0  0  0
    1.0377   -3.7131    0.0000 C   0  0  0  0  0  0           0  0  0
    0.5330   -3.0573    0.0000 N   0  0  3  0  0  0           0  0  0
   -0.2424   -3.3367    0.0000 C   0  0  0  0  0  0           0  0  0
   -1.6514   -3.3333    0.0000 C   0  0  0  0  0  0           0  0  0
   -1.6526   -4.1607    0.0000 C   0  0  0  0  0  0           0  0  0
   -0.9378   -4.5735    0.0000 C   0  0  0  0  0  0           0  0  0
   -0.9396   -2.9205    0.0000 C   0  0  0  0  0  0           0  0  0
    0.5250   -2.2292    0.0000 C   0  0  0  0  0  0           0  0  0
    1.2750   -5.6292    0.0000 O   0  0  0  0  0  0           0  0  0
    2.7000   -5.6292    0.0000 O   0  0  0  0  0  0           0  0  0
    3.4125   -3.5667    0.0000 O   0  0  0  0  0  0           0  0  0
   -2.3708   -4.5667    0.0000 O   0  0  0  0  0  0           0  0  0
   -3.0875   -4.1542    0.0000 C   0  0  0  0  0  0           0  0  0
    3.3750   -0.5625    0.0000 F   0  0  0  0  0  0           0  0  0
  7  8  2  0     0  0
  1 14  2  0     0  0
 14 15  1  0     0  0
 15 16  1  0     0  0
 16 13  1  0     0  0
  8  9  1  0     0  0
  4  5  1  0     0  0
 17 18  2  0     0  0
  9 10  2  0     0  0
 18 19  1  0     0  0
 19 13  2  0     0  0
  2  3  1  0     0  0
 16 20  2  0     0  0
 20 17  1  0     0  0
 10 11  1  0     0  0
 15 21  1  0     0  0
 21  8  1  0     0  0
  5  6  1  0     0  0
  2 22  2  0     0  0
 11 12  2  0     0  0
  4 23  1  0     0  0
 12  7  1  0     0  0
  5 24  2  0     0  0
 13  1  1  0     0  0
 18 25  1  0     0  0
  1  2  1  0     0  0
 25 26  1  0     0  0
  3  4  2  0     0  0
 11 27  1  0     0  0
M  END
>  <prID>
958

>  <IDDB>
346047

>  <pIC50_HIV_Integrase>
8.397940009

>  <Q>
-2.524901452

>  <Activity_Integrase>
Active_Integrase

NA
NA
NA
NA
$$$$

  Accelrys05311914292D 1   1.00000     0.00000     0

 11 11  0     0  0            999 V2000
    3.1817   -1.8735    0.0000 C   0  0  0  0  0  0           0  0  0
    3.9262   -1.5271    0.0000 C   0  0  0  0  0  0           0  0  0
    4.6676   -1.8932    0.0000 C   0  0  0  0  0  0           0  0  0
    2.9889   -2.6776    0.0000 C   0  0  0  0  0  0           0  0  0
    4.8460   -2.6974    0.0000 C   0  0  0  0  0  0           0  0  0
    3.4978   -3.3287    0.0000 C   0  0  0  0  0  0           0  0  0
    4.3237   -3.3346    0.0000 C   0  0  0  0  0  0           0  0  0
    3.9208   -0.7000    0.0000 O   0  0  0  0  0  0           0  0  0
    2.4292   -1.4042    0.0000 O   0  0  0  0  0  0           0  0  0
    5.3792   -1.4750    0.0000 O   0  0  0  0  0  0           0  0  0
    5.6417   -2.9083    0.0000 O   0  0  0  0  0  0           0  0  0
  4  6  1  0     0  0
  1  2  1  0     0  0
  5  7  1  0     0  0
  6  7  2  0     0  0
  1  4  2  0     0  0
  2  8  2  0     0  0
  1  9  1  0     0  0
  3  5  2  0     0  0
  3 10  1  0     0  0
  2  3  1  0     0  0
  5 11  1  0     0  0
M  END
>  <prID>
959

>  <IDDB>
346048

>  <pIC50_HIV_Integrase>
4.958607315

>  <Q>
-1.692663845

>  <Activity_Integrase>
Inactive_Integrase

NA
NA
NA
NA
$$$$

  Accelrys05311914292D 1   1.00000     0.00000     0

 16 17  0     0  0            999 V2000
    1.1208   -3.6921    0.0000 S   0  0  0  0  0  0           0  0  0
    1.9457   -3.6764    0.0000 C   0  0  0  0  0  0           0  0  0
    2.1875   -2.8875    0.0000 C   0  0  0  0  0  0           0  0  0
    1.5091   -2.4136    0.0000 C   0  0  0  0  0  0           0  0  0
    0.8534   -2.9129    0.0000 C   0  0  0  0  0  0           0  0  0
    3.1817   -1.8735    0.0000 C   0  0  0  0  0  0           0  0  0
    3.9262   -1.5271    0.0000 C   0  0  0  0  0  0           0  0  0
    4.6676   -1.8932    0.0000 C   0  0  0  0  0  0           0  0  0
    2.9889   -2.6776    0.0000 C   0  0  0  0  0  0           0  0  0
    4.8460   -2.6974    0.0000 C   0  0  0  0  0  0           0  0  0
    3.4978   -3.3287    0.0000 C   0  0  0  0  0  0           0  0  0
    4.3237   -3.3346    0.0000 C   0  0  0  0  0  0           0  0  0
    3.9208   -0.7000    0.0000 O   0  0  0  0  0  0           0  0  0
    2.4292   -1.4042    0.0000 O   0  0  0  0  0  0           0  0  0
    5.3792   -1.4750    0.0000 O   0  0  0  0  0  0           0  0  0
    5.6417   -2.9083    0.0000 O   0  0  0  0  0  0           0  0  0
  3  4  1  0     0  0
  6  9  2  0     0  0
  4  5  2  0     0  0
  8 10  2  0     0  0
  5  1  1  0     0  0
  9 11  1  0     0  0
  1  2  1  0     0  0
 10 12  1  0     0  0
 11 12  2  0     0  0
  7 13  2  0     0  0
  6  7  1  0     0  0
  6 14  1  0     0  0
  2  3  2  0     0  0
  8 15  1  0     0  0
  7  8  1  0     0  0
 10 16  1  0     0  0
  9  3  1  0     0  0
M  END
>  <prID>
960

>  <IDDB>
346049

>  <pIC50_HIV_Integrase>
5.585026652

>  <Q>
-0.47926843

>  <Activity_Integrase>
Inactive_Integrase

NA
NA
NA
NA
$$$$

  Accelrys05311914292D 1   1.00000     0.00000     0

 20 21  0     0  0            999 V2000
    0.8106   -2.6012    0.0000 C   0  0  0  0  0  0           0  0  0
    0.6228   -3.4070    0.0000 C   0  0  0  0  0  0           0  0  0
    1.2260   -3.9705    0.0000 C   0  0  0  0  0  0           0  0  0
    2.0172   -3.7295    0.0000 C   0  0  0  0  0  0           0  0  0
    2.2019   -2.9198    0.0000 C   0  0  0  0  0  0           0  0  0
    1.5973   -2.3598    0.0000 C   0  0  0  0  0  0           0  0  0
    2.9894   -2.6740    0.0000 C   0  0  0  0  0  0           0  0  0
    3.1817   -1.8735    0.0000 C   0  0  0  0  0  0           0  0  0
    3.9262   -1.5271    0.0000 C   0  0  0  0  0  0           0  0  0
    4.6676   -1.8932    0.0000 C   0  0  0  0  0  0           0  0  0
    4.8460   -2.6974    0.0000 C   0  0  0  0  0  0           0  0  0
    3.4978   -3.3287    0.0000 C   0  0  0  0  0  0           0  0  0
    4.3237   -3.3346    0.0000 C   0  0  0  0  0  0           0  0  0
    3.9208   -0.7000    0.0000 O   0  0  0  0  0  0           0  0  0
    2.4292   -1.4042    0.0000 O   0  0  0  0  0  0           0  0  0
    5.3792   -1.4750    0.0000 O   0  0  0  0  0  0           0  0  0
    5.6417   -2.9083    0.0000 O   0  0  0  0  0  0           0  0  0
    1.0083   -4.7625    0.0000 N   0  3  0  0  0  0           0  0  0
   -0.0375   -5.0250    0.0000 O   0  5  0  0  0  0           0  0  0
    1.5917   -5.3458    0.0000 O   0  0  0  0  0  0           0  0  0
  8  7  2  0     0  0
  2  3  1  0     0  0
 10 11  2  0     0  0
  5  6  2  0     0  0
  7 12  1  0     0  0
  6  1  1  0     0  0
 11 13  1  0     0  0
 12 13  2  0     0  0
  1  2  2  0     0  0
  9 14  2  0     0  0
  5  7  1  0     0  0
  8 15  1  0     0  0
  3  4  2  0     0  0
 10 16  1  0     0  0
 11 17  1  0     0  0
  8  9  1  0     0  0
  3 18  1  0     0  0
  4  5  1  0     0  0
 18 19  1  0     0  0
  9 10  1  0     0  0
 18 20  2  0     0  0
M  CHG  2  18   1  19  -1
M  END
>  <prID>
961

>  <IDDB>
346050

>  <pIC50_HIV_Integrase>
6.107905397

>  <Q>
-1.215022839

>  <Activity_Integrase>
Active_Integrase

NA
NA
NA
NA
$$$$

  Accelrys05311914292D 1   1.00000     0.00000     0

 21 22  0     0  0            999 V2000
    0.8106   -2.6012    0.0000 C   0  0  0  0  0  0           0  0  0
    0.6228   -3.4070    0.0000 C   0  0  0  0  0  0           0  0  0
    1.2260   -3.9705    0.0000 C   0  0  0  0  0  0           0  0  0
    2.0172   -3.7295    0.0000 C   0  0  0  0  0  0           0  0  0
    2.2019   -2.9198    0.0000 C   0  0  0  0  0  0           0  0  0
    1.5973   -2.3598    0.0000 C   0  0  0  0  0  0           0  0  0
    2.9894   -2.6740    0.0000 C   0  0  0  0  0  0           0  0  0
    3.1817   -1.8735    0.0000 C   0  0  0  0  0  0           0  0  0
    3.9262   -1.5271    0.0000 C   0  0  0  0  0  0           0  0  0
    4.6676   -1.8932    0.0000 C   0  0  0  0  0  0           0  0  0
    4.8460   -2.6974    0.0000 C   0  0  0  0  0  0           0  0  0
    3.4978   -3.3287    0.0000 C   0  0  0  0  0  0           0  0  0
    4.3237   -3.3346    0.0000 C   0  0  0  0  0  0           0  0  0
    3.9208   -0.7000    0.0000 O   0  0  0  0  0  0           0  0  0
    2.4292   -1.4042    0.0000 O   0  0  0  0  0  0           0  0  0
    5.3792   -1.4750    0.0000 O   0  0  0  0  0  0           0  0  0
    5.6417   -2.9083    0.0000 O   0  0  0  0  0  0           0  0  0
   -0.1792   -3.6167    0.0000 C   0  0  3  0  0  0           0  0  0
   -0.7667   -3.0292    0.0000 F   0  0  0  0  0  0           0  0  0
   -0.3958   -4.4125    0.0000 F   0  0  0  0  0  0           0  0  0
   -0.9792   -3.8292    0.0000 F   0  0  0  0  0  0           0  0  0
  2  3  1  0     0  0
 10 11  2  0     0  0
  5  6  2  0     0  0
  7 12  1  0     0  0
  6  1  1  0     0  0
 11 13  1  0     0  0
 12 13  2  0     0  0
  1  2  2  0     0  0
  9 14  2  0     0  0
  5  7  1  0     0  0
  8 15  1  0     0  0
  3  4  2  0     0  0
 10 16  1  0     0  0
 11 17  1  0     0  0
  8  9  1  0     0  0
  2 18  1  0     0  0
  4  5  1  0     0  0
 18 19  1  0     0  0
  9 10  1  0     0  0
 18 20  1  0     0  0
  8  7  2  0     0  0
 18 21  1  0     0  0
M  END
>  <prID>
962

>  <IDDB>
346051

>  <pIC50_HIV_Integrase>
3.920818754

>  <Q>
-9.459067537

>  <Activity_Integrase>
Inactive_Integrase

NA
NA
NA
NA
$$$$

  Accelrys05311914292D 1   1.00000     0.00000     0

 21 22  0     0  0            999 V2000
    3.7315   -2.9429    0.0000 C   0  0  0  0  0  0           0  0  0
    3.5436   -3.7487    0.0000 C   0  0  0  0  0  0           0  0  0
    4.1468   -4.3122    0.0000 C   0  0  0  0  0  0           0  0  0
    4.9381   -4.0712    0.0000 C   0  0  0  0  0  0           0  0  0
    5.1227   -3.2614    0.0000 C   0  0  0  0  0  0           0  0  0
    4.5181   -2.7014    0.0000 C   0  0  0  0  0  0           0  0  0
    5.9102   -3.0157    0.0000 C   0  0  0  0  0  0           0  0  0
    6.1025   -2.2151    0.0000 C   0  0  0  0  0  0           0  0  0
    6.8471   -1.8687    0.0000 C   0  0  0  0  0  0           0  0  0
    7.5885   -2.2349    0.0000 C   0  0  0  0  0  0           0  0  0
    7.7668   -3.0391    0.0000 C   0  0  0  0  0  0           0  0  0
    6.4186   -3.6704    0.0000 C   0  0  0  0  0  0           0  0  0
    7.2446   -3.6762    0.0000 C   0  0  0  0  0  0           0  0  0
    6.8417   -1.0417    0.0000 O   0  0  0  0  0  0           0  0  0
    5.3500   -1.7458    0.0000 O   0  0  0  0  0  0           0  0  0
    8.3000   -1.8167    0.0000 O   0  0  0  0  0  0           0  0  0
    8.5625   -3.2500    0.0000 O   0  0  0  0  0  0           0  0  0
    3.9292   -5.1042    0.0000 N   0  0  0  0  0  0           0  0  0
    3.1292   -5.3167    0.0000 C   0  0  0  0  0  0           0  0  0
    2.9125   -6.1125    0.0000 C   0  0  0  0  0  0           0  0  0
    2.5250   -4.7750    0.0000 O   0  0  0  0  0  0           0  0  0
  2  3  1  0     0  0
 10 11  2  0     0  0
  5  6  2  0     0  0
  7 12  1  0     0  0
  6  1  1  0     0  0
 11 13  1  0     0  0
 12 13  2  0     0  0
  1  2  2  0     0  0
  9 14  2  0     0  0
  5  7  1  0     0  0
  8 15  1  0     0  0
  3  4  2  0     0  0
 10 16  1  0     0  0
 11 17  1  0     0  0
  8  9  1  0     0  0
  3 18  1  0     0  0
  4  5  1  0     0  0
 18 19  1  0     0  0
  9 10  1  0     0  0
 19 20  1  0     0  0
  8  7  2  0     0  0
 19 21  2  0     0  0
M  END
>  <prID>
963

>  <IDDB>
346052

>  <pIC50_HIV_Integrase>
5.27572413

>  <Q>
-2.292040704

>  <Activity_Integrase>
Inactive_Integrase

NA
NA
NA
NA
$$$$

  Accelrys05311914292D 1   1.00000     0.00000     0

 19 20  0     0  0            999 V2000
    3.7315   -2.9429    0.0000 C   0  0  0  0  0  0           0  0  0
    3.5436   -3.7487    0.0000 C   0  0  0  0  0  0           0  0  0
    4.1468   -4.3122    0.0000 C   0  0  0  0  0  0           0  0  0
    4.9381   -4.0712    0.0000 C   0  0  0  0  0  0           0  0  0
    5.1227   -3.2614    0.0000 C   0  0  0  0  0  0           0  0  0
    4.5181   -2.7014    0.0000 C   0  0  0  0  0  0           0  0  0
    5.9102   -3.0157    0.0000 C   0  0  0  0  0  0           0  0  0
    6.1025   -2.2151    0.0000 C   0  0  0  0  0  0           0  0  0
    6.8471   -1.8687    0.0000 C   0  0  0  0  0  0           0  0  0
    7.5885   -2.2349    0.0000 C   0  0  0  0  0  0           0  0  0
    7.7668   -3.0391    0.0000 C   0  0  0  0  0  0           0  0  0
    6.4186   -3.6704    0.0000 C   0  0  0  0  0  0           0  0  0
    7.2446   -3.6762    0.0000 C   0  0  0  0  0  0           0  0  0
    6.8417   -1.0417    0.0000 O   0  0  0  0  0  0           0  0  0
    5.3500   -1.7458    0.0000 O   0  0  0  0  0  0           0  0  0
    8.3000   -1.8167    0.0000 O   0  0  0  0  0  0           0  0  0
    8.5625   -3.2500    0.0000 O   0  0  0  0  0  0           0  0  0
    3.9292   -5.1042    0.0000 C   0  0  0  0  0  0           0  0  0
    3.1292   -5.3167    0.0000 O   0  0  0  0  0  0           0  0  0
  9 10  1  0     0  0
  8  7  2  0     0  0
  2  3  1  0     0  0
 10 11  2  0     0  0
  5  6  2  0     0  0
  7 12  1  0     0  0
  6  1  1  0     0  0
 11 13  1  0     0  0
 12 13  2  0     0  0
  1  2  2  0     0  0
  9 14  2  0     0  0
  5  7  1  0     0  0
  8 15  1  0     0  0
  3  4  2  0     0  0
 10 16  1  0     0  0
 11 17  1  0     0  0
  8  9  1  0     0  0
  3 18  1  0     0  0
  4  5  1  0     0  0
 18 19  2  0     0  0
M  END
>  <prID>
964

>  <IDDB>
346053

>  <pIC50_HIV_Integrase>
5.920818754

>  <Q>
-0.92755468

>  <Activity_Integrase>
Inactive_Integrase

NA
NA
NA
NA
$$$$

  Accelrys05311914292D 1   1.00000     0.00000     0

 18 19  0     0  0            999 V2000
    3.7315   -2.9429    0.0000 C   0  0  0  0  0  0           0  0  0
    3.5436   -3.7487    0.0000 C   0  0  0  0  0  0           0  0  0
    4.1468   -4.3122    0.0000 C   0  0  0  0  0  0           0  0  0
    4.9381   -4.0712    0.0000 C   0  0  0  0  0  0           0  0  0
    5.1227   -3.2614    0.0000 C   0  0  0  0  0  0           0  0  0
    4.5181   -2.7014    0.0000 C   0  0  0  0  0  0           0  0  0
    5.9102   -3.0157    0.0000 C   0  0  0  0  0  0           0  0  0
    6.1025   -2.2151    0.0000 C   0  0  0  0  0  0           0  0  0
    6.8471   -1.8687    0.0000 C   0  0  0  0  0  0           0  0  0
    7.5885   -2.2349    0.0000 C   0  0  0  0  0  0           0  0  0
    7.7668   -3.0391    0.0000 C   0  0  0  0  0  0           0  0  0
    6.4186   -3.6704    0.0000 C   0  0  0  0  0  0           0  0  0
    7.2446   -3.6762    0.0000 C   0  0  0  0  0  0           0  0  0
    6.8417   -1.0417    0.0000 O   0  0  0  0  0  0           0  0  0
    5.3500   -1.7458    0.0000 O   0  0  0  0  0  0           0  0  0
    8.3000   -1.8167    0.0000 O   0  0  0  0  0  0           0  0  0
    8.5625   -3.2500    0.0000 O   0  0  0  0  0  0           0  0  0
    5.5208   -4.6833    0.0000 F   0  0  0  0  0  0           0  0  0
  4  5  1  0     0  0
  9 10  1  0     0  0
  8  7  2  0     0  0
  2  3  1  0     0  0
 10 11  2  0     0  0
  5  6  2  0     0  0
  7 12  1  0     0  0
  6  1  1  0     0  0
 11 13  1  0     0  0
 12 13  2  0     0  0
  1  2  2  0     0  0
  9 14  2  0     0  0
  5  7  1  0     0  0
  8 15  1  0     0  0
  3  4  2  0     0  0
 10 16  1  0     0  0
 11 17  1  0     0  0
  8  9  1  0     0  0
  4 18  1  0     0  0
M  END
>  <prID>
965

>  <IDDB>
346054

>  <pIC50_HIV_Integrase>
4.769551079

>  <Q>
-3.462129218

>  <Activity_Integrase>
Inactive_Integrase

NA
NA
NA
NA
$$$$

  Accelrys05311914292D 1   1.00000     0.00000     0

 21 22  0     0  0            999 V2000
    3.7315   -2.9429    0.0000 C   0  0  0  0  0  0           0  0  0
    3.5436   -3.7487    0.0000 C   0  0  0  0  0  0           0  0  0
    4.1468   -4.3122    0.0000 C   0  0  0  0  0  0           0  0  0
    4.9381   -4.0712    0.0000 C   0  0  0  0  0  0           0  0  0
    5.1227   -3.2614    0.0000 C   0  0  0  0  0  0           0  0  0
    4.5181   -2.7014    0.0000 C   0  0  0  0  0  0           0  0  0
    5.9102   -3.0157    0.0000 C   0  0  0  0  0  0           0  0  0
    6.1025   -2.2151    0.0000 C   0  0  0  0  0  0           0  0  0
    6.8471   -1.8687    0.0000 C   0  0  0  0  0  0           0  0  0
    7.5885   -2.2349    0.0000 C   0  0  0  0  0  0           0  0  0
    7.7668   -3.0391    0.0000 C   0  0  0  0  0  0           0  0  0
    6.4186   -3.6704    0.0000 C   0  0  0  0  0  0           0  0  0
    7.2446   -3.6762    0.0000 C   0  0  0  0  0  0           0  0  0
    6.8417   -1.0417    0.0000 O   0  0  0  0  0  0           0  0  0
    5.3500   -1.7458    0.0000 O   0  0  0  0  0  0           0  0  0
    8.3000   -1.8167    0.0000 O   0  0  0  0  0  0           0  0  0
    8.5625   -3.2500    0.0000 O   0  0  0  0  0  0           0  0  0
    3.9292   -5.1042    0.0000 C   0  0  3  0  0  0           0  0  0
    3.1292   -5.3167    0.0000 F   0  0  0  0  0  0           0  0  0
    4.5125   -5.6875    0.0000 F   0  0  0  0  0  0           0  0  0
    3.7125   -5.9000    0.0000 F   0  0  0  0  0  0           0  0  0
  2  3  1  0     0  0
 10 11  2  0     0  0
  5  6  2  0     0  0
  7 12  1  0     0  0
  6  1  1  0     0  0
 11 13  1  0     0  0
 12 13  2  0     0  0
  1  2  2  0     0  0
  9 14  2  0     0  0
  5  7  1  0     0  0
  8 15  1  0     0  0
  3  4  2  0     0  0
 10 16  1  0     0  0
 11 17  1  0     0  0
  8  9  1  0     0  0
  3 18  1  0     0  0
  4  5  1  0     0  0
 18 19  1  0     0  0
  9 10  1  0     0  0
 18 20  1  0     0  0
  8  7  2  0     0  0
 18 21  1  0     0  0
M  END
>  <prID>
966

>  <IDDB>
346055

>  <pIC50_HIV_Integrase>
5.148741651

>  <Q>
-9.450158979

>  <Activity_Integrase>
Inactive_Integrase

NA
NA
NA
NA
$$$$

  Accelrys05311914292D 1   1.00000     0.00000     0

 32 36  0     0  0            999 V2000
    0.1258   -7.7017    0.0000 C   0  0  0  0  0  0           0  0  0
    0.1247   -8.5290    0.0000 C   0  0  0  0  0  0           0  0  0
    0.8395   -8.9419    0.0000 C   0  0  0  0  0  0           0  0  0
    1.5559   -8.5286    0.0000 C   0  0  0  0  0  0           0  0  0
    1.5531   -7.6980    0.0000 C   0  0  0  0  0  0           0  0  0
    0.8377   -7.2889    0.0000 C   0  0  0  0  0  0           0  0  0
    0.8394   -6.4578    0.0000 C   0  0  0  0  0  0           0  0  0
    2.2695   -7.2847    0.0000 C   0  0  0  0  0  0           0  0  0
    2.2667   -6.4542    0.0000 C   0  0  0  0  0  0           0  0  0
    1.5513   -6.0450    0.0000 C   0  0  0  0  0  0           0  0  0
    3.7200   -6.4238    0.0000 N   0  0  0  0  0  0           0  0  0
    4.3028   -5.8398    0.0000 N   0  0  0  0  0  0           0  0  0
    3.9292   -5.1042    0.0000 C   0  0  0  0  0  0           0  0  0
    3.1119   -5.2341    0.0000 O   0  0  0  0  0  0           0  0  0
    2.9866   -6.0486    0.0000 C   0  0  0  0  0  0           0  0  0
    3.7315   -2.9429    0.0000 C   0  0  0  0  0  0           0  0  0
    3.5436   -3.7487    0.0000 C   0  0  0  0  0  0           0  0  0
    4.1468   -4.3122    0.0000 C   0  0  0  0  0  0           0  0  0
    4.9381   -4.0712    0.0000 C   0  0  0  0  0  0           0  0  0
    5.1227   -3.2614    0.0000 C   0  0  0  0  0  0           0  0  0
    4.5181   -2.7014    0.0000 C   0  0  0  0  0  0           0  0  0
    5.9102   -3.0157    0.0000 C   0  0  0  0  0  0           0  0  0
    6.1025   -2.2151    0.0000 C   0  0  0  0  0  0           0  0  0
    6.8471   -1.8687    0.0000 C   0  0  0  0  0  0           0  0  0
    7.5885   -2.2349    0.0000 C   0  0  0  0  0  0           0  0  0
    7.7668   -3.0391    0.0000 C   0  0  0  0  0  0           0  0  0
    6.4186   -3.6704    0.0000 C   0  0  0  0  0  0           0  0  0
    7.2446   -3.6762    0.0000 C   0  0  0  0  0  0           0  0  0
    6.8417   -1.0417    0.0000 O   0  0  0  0  0  0           0  0  0
    5.3500   -1.7458    0.0000 O   0  0  0  0  0  0           0  0  0
    8.3000   -1.8167    0.0000 O   0  0  0  0  0  0           0  0  0
    8.5625   -3.2500    0.0000 O   0  0  0  0  0  0           0  0  0
  3  4  2  0     0  0
  5  8  2  0     0  0
 16 17  2  0     0  0
 17 18  1  0     0  0
  8  9  1  0     0  0
 18 19  2  0     0  0
  4  5  1  0     0  0
 19 20  1  0     0  0
  9 10  2  0     0  0
 20 21  2  0     0  0
 21 16  1  0     0  0
 10  7  1  0     0  0
 20 22  1  0     0  0
 11 12  1  0     0  0
  2  3  1  0     0  0
 23 24  1  0     0  0
  5  6  1  0     0  0
 24 25  1  0     0  0
 23 22  2  0     0  0
  6  1  1  0     0  0
 25 26  2  0     0  0
  1  2  2  0     0  0
 22 27  1  0     0  0
  7  6  2  0     0  0
 26 28  1  0     0  0
 27 28  2  0     0  0
 12 13  2  0     0  0
 24 29  2  0     0  0
 13 14  1  0     0  0
 23 30  1  0     0  0
 14 15  1  0     0  0
 25 31  1  0     0  0
 15 11  2  0     0  0
 26 32  1  0     0  0
 18 13  1  0     0  0
 15  9  1  0     0  0
M  END
>  <prID>
967

>  <IDDB>
346056

>  <pIC50_HIV_Integrase>
4.744727495

>  <Q>
-0.867540449

>  <Activity_Integrase>
Inactive_Integrase

NA
NA
NA
NA
$$$$

  Accelrys05311914292D 1   1.00000     0.00000     0

 21 23  0     0  0            999 V2000
    7.9132   -6.3766    0.0000 S   0  0  0  0  0  0           0  0  0
    7.9008   -5.5517    0.0000 C   0  0  0  0  0  0           0  0  0
    7.1129   -5.3067    0.0000 C   0  0  0  0  0  0           0  0  0
    6.6363   -5.9832    0.0000 C   0  0  0  0  0  0           0  0  0
    7.1329   -6.6408    0.0000 C   0  0  0  0  0  0           0  0  0
    3.5833   -4.8629    0.0000 S   0  0  0  0  0  0           0  0  0
    4.4082   -4.8472    0.0000 C   0  0  0  0  0  0           0  0  0
    4.6500   -4.0583    0.0000 C   0  0  0  0  0  0           0  0  0
    3.9716   -3.5844    0.0000 C   0  0  0  0  0  0           0  0  0
    3.3159   -4.0837    0.0000 C   0  0  0  0  0  0           0  0  0
    5.6442   -3.0443    0.0000 C   0  0  0  0  0  0           0  0  0
    6.3887   -2.6979    0.0000 C   0  0  0  0  0  0           0  0  0
    7.1301   -3.0641    0.0000 C   0  0  0  0  0  0           0  0  0
    5.4514   -3.8484    0.0000 C   0  0  0  0  0  0           0  0  0
    7.3085   -3.8682    0.0000 C   0  0  0  0  0  0           0  0  0
    5.9603   -4.4995    0.0000 C   0  0  0  0  0  0           0  0  0
    6.7862   -4.5054    0.0000 C   0  0  0  0  0  0           0  0  0
    6.3833   -1.8708    0.0000 O   0  0  0  0  0  0           0  0  0
    4.8917   -2.5750    0.0000 O   0  0  0  0  0  0           0  0  0
    7.8417   -2.6458    0.0000 O   0  0  0  0  0  0           0  0  0
    8.1042   -4.0792    0.0000 O   0  0  0  0  0  0           0  0  0
  5  1  1  0     0  0
  6  7  1  0     0  0
 11 12  1  0     0  0
  1  2  1  0     0  0
 12 13  1  0     0  0
 11 14  2  0     0  0
  2  3  2  0     0  0
 13 15  2  0     0  0
  3  4  1  0     0  0
 14 16  1  0     0  0
  4  5  2  0     0  0
 15 17  1  0     0  0
 16 17  2  0     0  0
  7  8  2  0     0  0
 12 18  2  0     0  0
  8  9  1  0     0  0
 11 19  1  0     0  0
  9 10  2  0     0  0
 13 20  1  0     0  0
 10  6  1  0     0  0
 15 21  1  0     0  0
 14  8  1  0     0  0
 17  3  1  0     0  0
M  END
>  <prID>
968

>  <IDDB>
346057

>  <pIC50_HIV_Integrase>
5.508638306

>  <Q>
0.738254474

>  <Activity_Integrase>
Inactive_Integrase

NA
NA
NA
NA
$$$$

  Accelrys05311914292D 1   1.00000     0.00000     0

 29 31  0     0  0            999 V2000
    7.5225   -5.8344    0.0000 C   0  0  0  0  0  0           0  0  0
    8.3478   -5.8931    0.0000 C   0  0  0  0  0  0           0  0  0
    8.8094   -5.2087    0.0000 C   0  0  0  0  0  0           0  0  0
    8.4468   -4.4653    0.0000 C   0  0  0  0  0  0           0  0  0
    7.6181   -4.4104    0.0000 C   0  0  0  0  0  0           0  0  0
    7.1603   -5.0956    0.0000 C   0  0  0  0  0  0           0  0  0
    9.6257   -5.2990    0.0000 N   0  3  0  0  0  0           0  0  0
   10.0496   -6.2905    0.0000 O   0  5  0  0  0  0           0  0  0
   10.1100   -4.6311    0.0000 O   0  0  0  0  0  0           0  0  0
    7.2486   -3.6737    0.0000 C   0  0  0  0  0  0           0  0  0
    3.7315   -2.9429    0.0000 C   0  0  0  0  0  0           0  0  0
    3.5436   -3.7487    0.0000 C   0  0  0  0  0  0           0  0  0
    4.1468   -4.3122    0.0000 C   0  0  0  0  0  0           0  0  0
    4.9381   -4.0712    0.0000 C   0  0  0  0  0  0           0  0  0
    5.1227   -3.2614    0.0000 C   0  0  0  0  0  0           0  0  0
    4.5181   -2.7014    0.0000 C   0  0  0  0  0  0           0  0  0
    5.9102   -3.0157    0.0000 C   0  0  0  0  0  0           0  0  0
    6.1025   -2.2151    0.0000 C   0  0  0  0  0  0           0  0  0
    6.8471   -1.8687    0.0000 C   0  0  0  0  0  0           0  0  0
    7.5885   -2.2349    0.0000 C   0  0  0  0  0  0           0  0  0
    7.7668   -3.0391    0.0000 C   0  0  0  0  0  0           0  0  0
    6.4186   -3.6704    0.0000 C   0  0  0  0  0  0           0  0  0
    6.8417   -1.0417    0.0000 O   0  0  0  0  0  0           0  0  0
    5.3500   -1.7458    0.0000 O   0  0  0  0  0  0           0  0  0
    8.3000   -1.8167    0.0000 O   0  0  0  0  0  0           0  0  0
    8.5625   -3.2500    0.0000 O   0  0  0  0  0  0           0  0  0
    3.9292   -5.1042    0.0000 N   0  3  0  0  0  0           0  0  0
    2.8833   -5.3667    0.0000 O   0  5  0  0  0  0           0  0  0
    4.5125   -5.6875    0.0000 O   0  0  0  0  0  0           0  0  0
 14 15  1  0     0  0
  3  7  1  0     0  0
 15 16  2  0     0  0
 16 11  1  0     0  0
  3  4  2  0     0  0
 15 17  1  0     0  0
  7  8  1  0     0  0
 18 19  1  0     0  0
  7  9  2  0     0  0
 19 20  1  0     0  0
 18 17  2  0     0  0
  4  5  1  0     0  0
 20 21  2  0     0  0
  2  3  1  0     0  0
 17 22  1  0     0  0
 21 10  1  0     0  0
 22 10  2  0     0  0
  5  6  2  0     0  0
 19 23  2  0     0  0
 11 12  2  0     0  0
 18 24  1  0     0  0
  6  1  1  0     0  0
 20 25  1  0     0  0
 12 13  1  0     0  0
 21 26  1  0     0  0
  5 10  1  0     0  0
 13 27  1  0     0  0
 13 14  2  0     0  0
 27 28  1  0     0  0
  1  2  2  0     0  0
 27 29  2  0     0  0
M  CHG  4   7   1   8  -1  27   1  28  -1
M  END
>  <prID>
969

>  <IDDB>
346058

>  <pIC50_HIV_Integrase>
5.431798276

>  <Q>
-0.733279839

>  <Activity_Integrase>
Inactive_Integrase

NA
NA
NA
NA
$$$$

  Accelrys05311914292D 1   1.00000     0.00000     0

 31 33  0     0  0            999 V2000
    7.6417   -6.3178    0.0000 C   0  0  0  0  0  0           0  0  0
    8.4481   -6.5028    0.0000 C   0  0  0  0  0  0           0  0  0
    9.0096   -5.8977    0.0000 C   0  0  0  0  0  0           0  0  0
    8.7659   -5.1073    0.0000 C   0  0  0  0  0  0           0  0  0
    7.9555   -4.9254    0.0000 C   0  0  0  0  0  0           0  0  0
    7.3975   -5.5320    0.0000 C   0  0  0  0  0  0           0  0  0
    8.6605   -7.3041    0.0000 C   0  0  3  0  0  0           0  0  0
    8.0750   -7.8936    0.0000 F   0  0  0  0  0  0           0  0  0
    9.4571   -7.5180    0.0000 F   0  0  0  0  0  0           0  0  0
    8.8758   -8.1033    0.0000 F   0  0  0  0  0  0           0  0  0
    7.7038   -4.1407    0.0000 C   0  0  0  0  0  0           0  0  0
    4.1898   -3.4096    0.0000 C   0  0  0  0  0  0           0  0  0
    4.0020   -4.2153    0.0000 C   0  0  0  0  0  0           0  0  0
    4.6052   -4.7789    0.0000 C   0  0  0  0  0  0           0  0  0
    5.3964   -4.5379    0.0000 C   0  0  0  0  0  0           0  0  0
    5.5810   -3.7281    0.0000 C   0  0  0  0  0  0           0  0  0
    4.9764   -3.1681    0.0000 C   0  0  0  0  0  0           0  0  0
    6.3685   -3.4823    0.0000 C   0  0  0  0  0  0           0  0  0
    6.5608   -2.6818    0.0000 C   0  0  0  0  0  0           0  0  0
    7.3054   -2.3354    0.0000 C   0  0  0  0  0  0           0  0  0
    8.0468   -2.7016    0.0000 C   0  0  0  0  0  0           0  0  0
    8.2251   -3.5057    0.0000 C   0  0  0  0  0  0           0  0  0
    6.8769   -4.1370    0.0000 C   0  0  0  0  0  0           0  0  0
    7.3000   -1.5083    0.0000 O   0  0  0  0  0  0           0  0  0
    5.8083   -2.2125    0.0000 O   0  0  0  0  0  0           0  0  0
    8.7583   -2.2833    0.0000 O   0  0  0  0  0  0           0  0  0
    9.0208   -3.7167    0.0000 O   0  0  0  0  0  0           0  0  0
    3.2000   -4.4250    0.0000 C   0  0  3  0  0  0           0  0  0
    2.6125   -3.8375    0.0000 F   0  0  0  0  0  0           0  0  0
    2.9833   -5.2208    0.0000 F   0  0  0  0  0  0           0  0  0
    2.4000   -4.6375    0.0000 F   0  0  0  0  0  0           0  0  0
 15 16  1  0     0  0
  3  4  2  0     0  0
 16 17  2  0     0  0
 17 12  1  0     0  0
  7  8  1  0     0  0
 16 18  1  0     0  0
  7  9  1  0     0  0
 19 20  1  0     0  0
  4  5  1  0     0  0
 20 21  1  0     0  0
 19 18  2  0     0  0
  7 10  1  0     0  0
 21 22  2  0     0  0
  2  3  1  0     0  0
 18 23  1  0     0  0
 22 11  1  0     0  0
 23 11  2  0     0  0
  5  6  2  0     0  0
 20 24  2  0     0  0
  6  1  1  0     0  0
 19 25  1  0     0  0
 12 13  2  0     0  0
 21 26  1  0     0  0
  5 11  1  0     0  0
 22 27  1  0     0  0
 13 14  1  0     0  0
 13 28  1  0     0  0
  1  2  2  0     0  0
 28 29  1  0     0  0
 14 15  2  0     0  0
 28 30  1  0     0  0
  2  7  1  0     0  0
 28 31  1  0     0  0
M  END
>  <prID>
970

>  <IDDB>
346059

>  <pIC50_HIV_Integrase>
5.420216403

>  <Q>
-17.22136724

>  <Activity_Integrase>
Inactive_Integrase

NA
NA
NA
NA
$$$$

  Accelrys05311914292D 1   1.00000     0.00000     0

 31 33  0     0  0            999 V2000
    7.4250   -5.7140    0.0000 C   0  0  0  0  0  0           0  0  0
    8.2363   -5.8766    0.0000 C   0  0  0  0  0  0           0  0  0
    8.7807   -5.2561    0.0000 C   0  0  0  0  0  0           0  0  0
    8.5151   -4.4728    0.0000 C   0  0  0  0  0  0           0  0  0
    7.7000   -4.3135    0.0000 C   0  0  0  0  0  0           0  0  0
    7.1591   -4.9353    0.0000 C   0  0  0  0  0  0           0  0  0
    9.5791   -5.4490    0.0000 N   0  0  0  0  0  0           0  0  0
    9.8164   -6.2420    0.0000 C   0  0  0  0  0  0           0  0  0
   10.6186   -6.4337    0.0000 C   0  0  0  0  0  0           0  0  0
    9.2939   -6.8627    0.0000 O   0  0  0  0  0  0           0  0  0
    7.4267   -3.5360    0.0000 C   0  0  0  0  0  0           0  0  0
    3.9106   -2.8012    0.0000 C   0  0  0  0  0  0           0  0  0
    3.7228   -3.6070    0.0000 C   0  0  0  0  0  0           0  0  0
    4.3260   -4.1705    0.0000 C   0  0  0  0  0  0           0  0  0
    5.1172   -3.9295    0.0000 C   0  0  0  0  0  0           0  0  0
    5.3019   -3.1198    0.0000 C   0  0  0  0  0  0           0  0  0
    4.6973   -2.5598    0.0000 C   0  0  0  0  0  0           0  0  0
    6.0894   -2.8740    0.0000 C   0  0  0  0  0  0           0  0  0
    6.2817   -2.0735    0.0000 C   0  0  0  0  0  0           0  0  0
    7.0262   -1.7271    0.0000 C   0  0  0  0  0  0           0  0  0
    7.7676   -2.0932    0.0000 C   0  0  0  0  0  0           0  0  0
    7.9460   -2.8974    0.0000 C   0  0  0  0  0  0           0  0  0
    6.5978   -3.5287    0.0000 C   0  0  0  0  0  0           0  0  0
    7.0208   -0.9000    0.0000 O   0  0  0  0  0  0           0  0  0
    5.5292   -1.6042    0.0000 O   0  0  0  0  0  0           0  0  0
    8.4792   -1.6750    0.0000 O   0  0  0  0  0  0           0  0  0
    8.7417   -3.1083    0.0000 O   0  0  0  0  0  0           0  0  0
    4.1083   -4.9625    0.0000 N   0  0  0  0  0  0           0  0  0
    3.3083   -5.1750    0.0000 C   0  0  0  0  0  0           0  0  0
    3.0917   -5.9708    0.0000 C   0  0  0  0  0  0           0  0  0
    2.7042   -4.6333    0.0000 O   0  0  0  0  0  0           0  0  0
 15 16  1  0     0  0
  3  4  2  0     0  0
 16 17  2  0     0  0
 17 12  1  0     0  0
  7  8  1  0     0  0
 16 18  1  0     0  0
  8  9  1  0     0  0
 19 20  1  0     0  0
  4  5  1  0     0  0
 20 21  1  0     0  0
 19 18  2  0     0  0
  8 10  2  0     0  0
 21 22  2  0     0  0
  2  3  1  0     0  0
 18 23  1  0     0  0
 22 11  1  0     0  0
 23 11  2  0     0  0
  5  6  2  0     0  0
 20 24  2  0     0  0
  6  1  1  0     0  0
 19 25  1  0     0  0
 12 13  2  0     0  0
 21 26  1  0     0  0
  5 11  1  0     0  0
 22 27  1  0     0  0
 13 14  1  0     0  0
 14 28  1  0     0  0
  1  2  2  0     0  0
 28 29  1  0     0  0
 14 15  2  0     0  0
 29 30  1  0     0  0
  3  7  1  0     0  0
 29 31  2  0     0  0
M  END
>  <prID>
971

>  <IDDB>
346060

>  <pIC50_HIV_Integrase>
5.769551079

>  <Q>
-2.887315395

>  <Activity_Integrase>
Inactive_Integrase

NA
NA
NA
NA
$$$$

  Accelrys05311914292D 1   1.00000     0.00000     0

 27 29  0     0  0            999 V2000
    5.3329   -5.1257    0.0000 C   0  0  0  0  0  0           0  0  0
    6.1560   -5.2095    0.0000 C   0  0  0  0  0  0           0  0  0
    6.6382   -4.5395    0.0000 C   0  0  0  0  0  0           0  0  0
    6.2985   -3.7853    0.0000 C   0  0  0  0  0  0           0  0  0
    5.4719   -3.7052    0.0000 C   0  0  0  0  0  0           0  0  0
    4.9933   -4.3761    0.0000 C   0  0  0  0  0  0           0  0  0
    5.1279   -2.9554    0.0000 C   0  0  0  0  0  0           0  0  0
    7.4515   -4.6546    0.0000 C   0  0  0  0  0  0           0  0  0
    7.7640   -5.4211    0.0000 O   0  0  0  0  0  0           0  0  0
    1.6148   -2.2221    0.0000 C   0  0  0  0  0  0           0  0  0
    1.4270   -3.0278    0.0000 C   0  0  0  0  0  0           0  0  0
    2.0302   -3.5914    0.0000 C   0  0  0  0  0  0           0  0  0
    2.8214   -3.3504    0.0000 C   0  0  0  0  0  0           0  0  0
    3.0060   -2.5406    0.0000 C   0  0  0  0  0  0           0  0  0
    2.4014   -1.9806    0.0000 C   0  0  0  0  0  0           0  0  0
    3.7935   -2.2948    0.0000 C   0  0  0  0  0  0           0  0  0
    3.9858   -1.4943    0.0000 C   0  0  0  0  0  0           0  0  0
    4.7304   -1.1479    0.0000 C   0  0  0  0  0  0           0  0  0
    5.4718   -1.5141    0.0000 C   0  0  0  0  0  0           0  0  0
    5.6501   -2.3182    0.0000 C   0  0  0  0  0  0           0  0  0
    4.3019   -2.9495    0.0000 C   0  0  0  0  0  0           0  0  0
    4.7250   -0.3208    0.0000 O   0  0  0  0  0  0           0  0  0
    3.2333   -1.0250    0.0000 O   0  0  0  0  0  0           0  0  0
    6.1833   -1.0958    0.0000 O   0  0  0  0  0  0           0  0  0
    6.4458   -2.5292    0.0000 O   0  0  0  0  0  0           0  0  0
    1.8125   -4.3833    0.0000 C   0  0  0  0  0  0           0  0  0
    1.0125   -4.5958    0.0000 O   0  0  0  0  0  0           0  0  0
 13 14  1  0     0  0
  5  7  1  0     0  0
 14 15  2  0     0  0
 15 10  1  0     0  0
  3  4  2  0     0  0
 14 16  1  0     0  0
  3  8  1  0     0  0
 17 18  1  0     0  0
  8  9  2  0     0  0
 18 19  1  0     0  0
 17 16  2  0     0  0
  4  5  1  0     0  0
 19 20  2  0     0  0
  2  3  1  0     0  0
 16 21  1  0     0  0
 20  7  1  0     0  0
 21  7  2  0     0  0
 10 11  2  0     0  0
 18 22  2  0     0  0
  5  6  2  0     0  0
 17 23  1  0     0  0
 11 12  1  0     0  0
 19 24  1  0     0  0
  6  1  1  0     0  0
 20 25  1  0     0  0
 12 13  2  0     0  0
 12 26  1  0     0  0
  1  2  2  0     0  0
 26 27  2  0     0  0
M  END
>  <prID>
972

>  <IDDB>
346061

>  <pIC50_HIV_Integrase>
5.958607315

>  <Q>
-0.158350017

>  <Activity_Integrase>
Inactive_Integrase

NA
NA
NA
NA
$$$$

  Accelrys05311914292D 1   1.00000     0.00000     0

 24 24  0     0  0            999 V2000
    3.9859   -1.4960    0.0000 C   0  0  0  0  0  0           0  0  0
    5.1279   -2.9554    0.0000 C   0  0  0  0  0  0           0  0  0
    3.7935   -2.2948    0.0000 C   0  0  0  0  0  0           0  0  0
    4.7304   -1.1479    0.0000 C   0  0  0  0  0  0           0  0  0
    5.4718   -1.5141    0.0000 C   0  0  0  0  0  0           0  0  0
    5.6501   -2.3182    0.0000 C   0  0  0  0  0  0           0  0  0
    4.3019   -2.9495    0.0000 C   0  0  0  0  0  0           0  0  0
    4.7250   -0.3208    0.0000 O   0  0  0  0  0  0           0  0  0
    6.1833   -1.0958    0.0000 O   0  0  0  0  0  0           0  0  0
    6.1458   -0.2167    0.0000 C   0  0  0  0  0  0           0  0  0
    3.2667   -1.0833    0.0000 O   0  0  0  0  0  0           0  0  0
    2.5500   -1.4917    0.0000 C   0  0  0  0  0  0           0  0  0
    3.8833   -3.6583    0.0000 O   0  0  0  0  0  0           0  0  0
    3.0583   -3.6542    0.0000 C   0  0  0  0  0  0           0  0  0
    6.4458   -2.5292    0.0000 O   0  0  0  0  0  0           0  0  0
    7.1583   -2.1125    0.0000 C   0  0  0  0  0  0           0  0  0
    6.9042    0.2250    0.0000 C   0  0  0  0  0  0           0  0  0
    5.3833    0.2250    0.0000 O   0  0  0  0  0  0           0  0  0
    7.8708   -2.5250    0.0000 C   0  0  0  0  0  0           0  0  0
    7.1542   -1.2875    0.0000 O   0  0  0  0  0  0           0  0  0
    2.6417   -4.3667    0.0000 C   0  0  0  0  0  0           0  0  0
    2.4708   -3.0667    0.0000 O   0  0  0  0  0  0           0  0  0
    1.8333   -1.0792    0.0000 C   0  0  0  0  0  0           0  0  0
    2.5458   -2.3167    0.0000 O   0  0  0  0  0  0           0  0  0
 11 12  1  0     0  0
  3  7  1  0     0  0
  7 13  1  0     0  0
  6  2  1  0     0  0
 13 14  1  0     0  0
  7  2  2  0     0  0
  6 15  1  0     0  0
  4  5  1  0     0  0
 15 16  1  0     0  0
  4  8  2  0     0  0
 10 17  1  0     0  0
  1  3  2  0     0  0
 10 18  2  0     0  0
  5  9  1  0     0  0
 16 19  1  0     0  0
  1  4  1  0     0  0
 16 20  2  0     0  0
  9 10  1  0     0  0
 14 21  1  0     0  0
  5  6  2  0     0  0
 14 22  2  0     0  0
  1 11  1  0     0  0
 12 23  1  0     0  0
 12 24  2  0     0  0
M  END
>  <prID>
973

>  <IDDB>
346064

>  <pIC50_HIV_Integrase>
4.207608311

>  <Q>
-2.526655903

>  <Activity_Integrase>
Inactive_Integrase

NA
NA
NA
NA
$$$$

  Accelrys05311914292D 1   1.00000     0.00000     0

 29 33  0     0  0            999 V2000
    2.9812   -3.3414    0.0000 C   0  0  0  0  0  0           0  0  0
    3.7675   -3.0917    0.0000 O   0  0  0  0  0  0           0  0  0
    3.7750   -2.2667    0.0000 C   0  0  0  0  0  0           0  0  0
    2.9898   -2.0053    0.0000 N   0  0  0  0  0  0           0  0  0
    2.5032   -2.6704    0.0000 C   0  0  0  0  0  0           0  0  0
    1.3323   -3.4419    0.0000 C   0  0  0  0  0  0           0  0  0
    1.7883   -4.1323    0.0000 C   0  0  0  0  0  0           0  0  0
    2.6122   -4.0817    0.0000 C   0  0  0  0  0  0           0  0  0
    1.6977   -2.7047    0.0000 C   0  0  0  0  0  0           0  0  0
    8.7736   -1.0291    0.0000 C   0  0  0  0  0  0           0  0  0
    8.7724   -1.8565    0.0000 C   0  0  0  0  0  0           0  0  0
    9.4872   -2.2694    0.0000 C   0  0  0  0  0  0           0  0  0
   10.2037   -1.8560    0.0000 C   0  0  0  0  0  0           0  0  0
   10.2008   -1.0255    0.0000 C   0  0  0  0  0  0           0  0  0
    9.4854   -0.6164    0.0000 C   0  0  0  0  0  0           0  0  0
    8.0569   -2.2708    0.0000 C   0  0  0  0  0  0           0  0  0
    8.0557   -3.0982    0.0000 C   0  0  0  0  0  0           0  0  0
    8.7706   -3.5110    0.0000 C   0  0  0  0  0  0           0  0  0
    9.4870   -3.0977    0.0000 C   0  0  0  0  0  0           0  0  0
    4.4944   -1.0333    0.0000 C   0  0  0  0  0  0           0  0  0
    4.4932   -1.8607    0.0000 C   0  0  0  0  0  0           0  0  0
    5.2081   -2.2735    0.0000 C   0  0  0  0  0  0           0  0  0
    5.9245   -1.8602    0.0000 C   0  0  0  0  0  0           0  0  0
    5.9216   -1.0297    0.0000 C   0  0  0  0  0  0           0  0  0
    5.2063   -0.6205    0.0000 C   0  0  0  0  0  0           0  0  0
    6.6333   -2.2708    0.0000 N   0  0  0  0  0  0           0  0  0
    3.7750   -0.6167    0.0000 O   0  0  0  0  0  0           0  0  0
    7.3458   -1.8542    0.0000 C   0  0  0  0  0  0           0  0  0
    7.3417   -1.0292    0.0000 O   0  0  0  0  0  0           0  0  0
  2  3  1  0     0  0
 14 15  2  0     0  0
 15 10  1  0     0  0
  7  8  1  0     0  0
  8  1  2  0     0  0
 16 17  2  0     0  0
  3  4  2  0     0  0
 17 18  1  0     0  0
  5  9  2  0     0  0
 18 19  2  0     0  0
 19 12  1  0     0  0
 11 16  1  0     0  0
  9  6  1  0     0  0
  4  5  1  0     0  0
 20 21  2  0     0  0
  5  1  1  0     0  0
 21 22  1  0     0  0
 10 11  2  0     0  0
 22 23  2  0     0  0
  1  2  1  0     0  0
 23 24  1  0     0  0
 11 12  1  0     0  0
 24 25  2  0     0  0
 25 20  1  0     0  0
 21  3  1  0     0  0
 23 26  1  0     0  0
 12 13  2  0     0  0
 20 27  1  0     0  0
  6  7  2  0     0  0
 26 28  1  0     0  0
 28 16  1  0     0  0
 13 14  1  0     0  0
 28 29  2  0     0  0
M  END
>  <prID>
974

>  <IDDB>
346068

>  <pIC50_HIV_Integrase>
5.22184875

>  <Q>
-0.044211834

>  <Activity_Integrase>
Inactive_Integrase

NA
NA
NA
NA
$$$$

  Accelrys05311914292D 1   1.00000     0.00000     0

 30 33  0     0  0            999 V2000
    2.9812   -3.3414    0.0000 C   0  0  0  0  0  0           0  0  0
    3.7675   -3.0917    0.0000 O   0  0  0  0  0  0           0  0  0
    3.7750   -2.2667    0.0000 C   0  0  0  0  0  0           0  0  0
    2.9898   -2.0053    0.0000 N   0  0  0  0  0  0           0  0  0
    2.5032   -2.6704    0.0000 C   0  0  0  0  0  0           0  0  0
    1.3323   -3.4419    0.0000 C   0  0  0  0  0  0           0  0  0
    1.7883   -4.1323    0.0000 C   0  0  0  0  0  0           0  0  0
    2.6122   -4.0817    0.0000 C   0  0  0  0  0  0           0  0  0
    1.6977   -2.7047    0.0000 C   0  0  0  0  0  0           0  0  0
    8.7724   -1.8565    0.0000 C   0  0  0  0  0  0           0  0  0
    9.4872   -2.2694    0.0000 C   0  0  0  0  0  0           0  0  0
    8.0569   -2.2708    0.0000 C   0  0  0  0  0  0           0  0  0
    8.0557   -3.0982    0.0000 C   0  0  0  0  0  0           0  0  0
    8.7706   -3.5110    0.0000 C   0  0  0  0  0  0           0  0  0
    9.4870   -3.0977    0.0000 C   0  0  0  0  0  0           0  0  0
    4.4944   -1.0333    0.0000 C   0  0  0  0  0  0           0  0  0
    4.4932   -1.8607    0.0000 C   0  0  0  0  0  0           0  0  0
    5.2081   -2.2735    0.0000 C   0  0  0  0  0  0           0  0  0
    5.9245   -1.8602    0.0000 C   0  0  0  0  0  0           0  0  0
    5.9216   -1.0297    0.0000 C   0  0  0  0  0  0           0  0  0
    5.2063   -0.6205    0.0000 C   0  0  0  0  0  0           0  0  0
    6.6333   -2.2708    0.0000 N   0  0  0  0  0  0           0  0  0
    3.7750   -0.6167    0.0000 O   0  0  0  0  0  0           0  0  0
    7.3458   -1.8542    0.0000 C   0  0  0  0  0  0           0  0  0
    7.3417   -1.0292    0.0000 O   0  0  0  0  0  0           0  0  0
   10.1958   -3.5083    0.0000 O   0  0  0  0  0  0           0  0  0
   10.9083   -3.0917    0.0000 C   0  0  0  0  0  0           0  0  0
   10.1958   -1.8500    0.0000 N   0  3  0  0  0  0           0  0  0
   10.1917   -1.0250    0.0000 O   0  5  0  0  0  0           0  0  0
   10.9083   -2.2625    0.0000 O   0  0  0  0  0  0           0  0  0
 15 11  1  0     0  0
 10 12  1  0     0  0
  7  8  1  0     0  0
  8  1  2  0     0  0
 16 17  2  0     0  0
  3  4  2  0     0  0
 17 18  1  0     0  0
  5  9  2  0     0  0
 18 19  2  0     0  0
  9  6  1  0     0  0
 19 20  1  0     0  0
  4  5  1  0     0  0
 20 21  2  0     0  0
 21 16  1  0     0  0
 17  3  1  0     0  0
  5  1  1  0     0  0
 19 22  1  0     0  0
 10 11  2  0     0  0
 16 23  1  0     0  0
  1  2  1  0     0  0
 22 24  1  0     0  0
 24 12  1  0     0  0
 24 25  2  0     0  0
 12 13  2  0     0  0
 15 26  1  0     0  0
  6  7  2  0     0  0
 26 27  1  0     0  0
 13 14  1  0     0  0
 11 28  1  0     0  0
  2  3  1  0     0  0
 28 29  1  0     0  0
 14 15  2  0     0  0
 28 30  2  0     0  0
M  CHG  2  28   1  29  -1
M  END
>  <prID>
975

>  <IDDB>
346069

>  <pIC50_HIV_Integrase>
5.15490196

>  <Q>
-0.81840817

>  <Activity_Integrase>
Inactive_Integrase

NA
NA
NA
NA
$$$$

  Accelrys05311914292D 1   1.00000     0.00000     0

 35 39  0     0  0            999 V2000
   11.5527   -1.0333    0.0000 C   0  0  0  0  0  0           0  0  0
   11.5516   -1.8607    0.0000 C   0  0  0  0  0  0           0  0  0
   12.2664   -2.2735    0.0000 C   0  0  0  0  0  0           0  0  0
   12.9828   -1.8602    0.0000 C   0  0  0  0  0  0           0  0  0
   12.9800   -1.0297    0.0000 C   0  0  0  0  0  0           0  0  0
   12.2646   -0.6205    0.0000 C   0  0  0  0  0  0           0  0  0
   10.8333   -2.2667    0.0000 C   0  0  0  0  0  0           0  0  0
   12.2583   -3.0958    0.0000 N   0  3  0  0  0  0           0  0  0
   10.1606   -1.7826    0.0000 O   0  0  0  0  0  0           0  0  0
    9.4872   -2.2694    0.0000 C   0  0  0  0  0  0           0  0  0
    9.7439   -3.0577    0.0000 C   0  0  0  0  0  0           0  0  0
   10.5731   -3.0577    0.0000 C   0  0  0  0  0  0           0  0  0
    2.9812   -3.3414    0.0000 C   0  0  0  0  0  0           0  0  0
    3.7675   -3.0917    0.0000 O   0  0  0  0  0  0           0  0  0
    3.7750   -2.2667    0.0000 C   0  0  0  0  0  0           0  0  0
    2.9898   -2.0053    0.0000 N   0  0  0  0  0  0           0  0  0
    2.5032   -2.6704    0.0000 C   0  0  0  0  0  0           0  0  0
    1.3323   -3.4419    0.0000 C   0  0  0  0  0  0           0  0  0
    1.7883   -4.1323    0.0000 C   0  0  0  0  0  0           0  0  0
    2.6122   -4.0817    0.0000 C   0  0  0  0  0  0           0  0  0
    1.6977   -2.7047    0.0000 C   0  0  0  0  0  0           0  0  0
    8.7724   -1.8565    0.0000 C   0  0  0  0  0  0           0  0  0
    8.0569   -2.2708    0.0000 C   0  0  0  0  0  0           0  0  0
    4.4944   -1.0333    0.0000 C   0  0  0  0  0  0           0  0  0
    4.4932   -1.8607    0.0000 C   0  0  0  0  0  0           0  0  0
    5.2081   -2.2735    0.0000 C   0  0  0  0  0  0           0  0  0
    5.9245   -1.8602    0.0000 C   0  0  0  0  0  0           0  0  0
    5.9216   -1.0297    0.0000 C   0  0  0  0  0  0           0  0  0
    5.2063   -0.6205    0.0000 C   0  0  0  0  0  0           0  0  0
    6.6333   -2.2708    0.0000 N   0  0  0  0  0  0           0  0  0
    3.7750   -0.6167    0.0000 O   0  0  0  0  0  0           0  0  0
    7.3458   -1.8542    0.0000 C   0  0  0  0  0  0           0  0  0
    7.3417   -1.0292    0.0000 O   0  0  0  0  0  0           0  0  0
   11.4208   -3.6500    0.0000 O   0  5  0  0  0  0           0  0  0
   12.9708   -3.5083    0.0000 O   0  0  0  0  0  0           0  0  0
 17 13  1  0     0  0
 10 11  2  0     0  0
 18 19  2  0     0  0
  4  5  1  0     0  0
 19 20  1  0     0  0
 20 13  2  0     0  0
  2  3  1  0     0  0
 17 21  2  0     0  0
 21 18  1  0     0  0
  5  6  2  0     0  0
 22 10  1  0     0  0
  9 10  1  0     0  0
 22 23  2  0     0  0
 11 12  1  0     0  0
 12  7  2  0     0  0
 24 25  2  0     0  0
  7  9  1  0     0  0
 25 26  1  0     0  0
 13 14  1  0     0  0
 26 27  2  0     0  0
  6  1  1  0     0  0
 27 28  1  0     0  0
  1  2  2  0     0  0
 28 29  2  0     0  0
 29 24  1  0     0  0
 25 15  1  0     0  0
  2  7  1  0     0  0
 27 30  1  0     0  0
  3  4  2  0     0  0
 24 31  1  0     0  0
  3  8  1  0     0  0
 30 32  1  0     0  0
 32 23  1  0     0  0
 14 15  1  0     0  0
 32 33  2  0     0  0
 15 16  2  0     0  0
  8 34  1  0     0  0
 16 17  1  0     0  0
  8 35  2  0     0  0
M  CHG  2   8   1  34  -1
M  END
>  <prID>
976

>  <IDDB>
346070

>  <pIC50_HIV_Integrase>
4.200659451

>  <Q>
-0.411184798

>  <Activity_Integrase>
Inactive_Integrase

NA
NA
NA
NA
$$$$

  Accelrys05311914292D 1   1.00000     0.00000     0

 26 29  0     0  0            999 V2000
    8.0569   -2.2708    0.0000 C   0  0  0  0  0  0           0  0  0
    8.0557   -3.0982    0.0000 C   0  0  0  0  0  0           0  0  0
    8.7706   -3.5110    0.0000 C   0  0  0  0  0  0           0  0  0
    9.4870   -3.0977    0.0000 C   0  0  0  0  0  0           0  0  0
    9.4841   -2.2672    0.0000 N   0  0  0  0  0  0           0  0  0
    8.7688   -1.8580    0.0000 C   0  0  0  0  0  0           0  0  0
    2.9812   -3.3414    0.0000 C   0  0  0  0  0  0           0  0  0
    3.7675   -3.0917    0.0000 O   0  0  0  0  0  0           0  0  0
    3.7750   -2.2667    0.0000 C   0  0  0  0  0  0           0  0  0
    2.9898   -2.0053    0.0000 N   0  0  0  0  0  0           0  0  0
    2.5032   -2.6704    0.0000 C   0  0  0  0  0  0           0  0  0
    1.3323   -3.4419    0.0000 C   0  0  0  0  0  0           0  0  0
    1.7883   -4.1323    0.0000 C   0  0  0  0  0  0           0  0  0
    2.6122   -4.0817    0.0000 C   0  0  0  0  0  0           0  0  0
    1.6977   -2.7047    0.0000 C   0  0  0  0  0  0           0  0  0
    4.4944   -1.0333    0.0000 C   0  0  0  0  0  0           0  0  0
    4.4932   -1.8607    0.0000 C   0  0  0  0  0  0           0  0  0
    5.2081   -2.2735    0.0000 C   0  0  0  0  0  0           0  0  0
    5.9245   -1.8602    0.0000 C   0  0  0  0  0  0           0  0  0
    5.9216   -1.0297    0.0000 C   0  0  0  0  0  0           0  0  0
    5.2063   -0.6205    0.0000 C   0  0  0  0  0  0           0  0  0
    6.6333   -2.2708    0.0000 N   0  0  0  0  0  0           0  0  0
    3.7750   -0.6167    0.0000 O   0  0  0  0  0  0           0  0  0
    7.3458   -1.8542    0.0000 C   0  0  0  0  0  0           0  0  0
    7.3417   -1.0292    0.0000 O   0  0  0  0  0  0           0  0  0
    0.5042   -3.4417    0.0000 Cl  0  0  0  0  0  0           0  0  0
  7  8  1  0     0  0
 13 14  1  0     0  0
 14  7  2  0     0  0
  1  2  2  0     0  0
 11 15  2  0     0  0
 15 12  1  0     0  0
  3  4  2  0     0  0
 16 17  2  0     0  0
  4  5  1  0     0  0
 17 18  1  0     0  0
  2  3  1  0     0  0
 18 19  2  0     0  0
  8  9  1  0     0  0
 19 20  1  0     0  0
  9 10  2  0     0  0
 20 21  2  0     0  0
 21 16  1  0     0  0
 17  9  1  0     0  0
 10 11  1  0     0  0
 19 22  1  0     0  0
 11  7  1  0     0  0
 16 23  1  0     0  0
  5  6  2  0     0  0
 22 24  1  0     0  0
 24  1  1  0     0  0
  6  1  1  0     0  0
 24 25  2  0     0  0
 12 13  2  0     0  0
 12 26  1  0     0  0
M  END
>  <prID>
977

>  <IDDB>
346071

>  <pIC50_HIV_Integrase>
5

>  <Q>
-1.464795104

>  <Activity_Integrase>
Inactive_Integrase

NA
NA
NA
NA
$$$$

  Accelrys05311914292D 1   1.00000     0.00000     0

 28 31  0     0  0            999 V2000
    6.9671   -4.2071    0.0000 C   0  0  0  0  0  0           0  0  0
    7.3790   -4.9247    0.0000 C   0  0  0  0  0  0           0  0  0
    8.2045   -4.9257    0.0000 C   0  0  0  0  0  0           0  0  0
    8.6191   -4.2100    0.0000 C   0  0  0  0  0  0           0  0  0
    8.2021   -3.4917    0.0000 C   0  0  0  0  0  0           0  0  0
    7.3780   -3.4942    0.0000 C   0  0  0  0  0  0           0  0  0
    6.9583   -2.7750    0.0000 C   0  0  0  0  0  0           0  0  0
    8.6083   -2.7750    0.0000 O   0  0  0  0  0  0           0  0  0
    4.0241   -1.8892    0.0000 C   0  0  0  0  0  0           0  0  0
    4.8174   -2.1155    0.0000 N   0  0  0  0  0  0           0  0  0
    5.2794   -1.4319    0.0000 C   0  0  0  0  0  0           0  0  0
    4.7693   -0.7802    0.0000 S   0  0  0  0  0  0           0  0  0
    3.9963   -1.0659    0.0000 C   0  0  0  0  0  0           0  0  0
    3.3521   -2.3741    0.0000 C   0  0  0  0  0  0           0  0  0
    6.1845   -1.4219    0.0000 N   0  0  0  0  0  0           0  0  0
    1.9292   -2.3750    0.0000 C   0  0  0  0  0  0           0  0  0
    1.9292   -3.2000    0.0000 C   0  0  0  0  0  0           0  0  0
    2.6412   -3.6083    0.0000 O   0  0  0  0  0  0           0  0  0
    3.3532   -3.2000    0.0000 C   0  0  0  0  0  0           0  0  0
    2.6412   -1.9583    0.0000 C   0  0  0  0  0  0           0  0  0
    0.4986   -2.3750    0.0000 C   0  0  0  0  0  0           0  0  0
    0.4974   -3.2023    0.0000 C   0  0  0  0  0  0           0  0  0
    1.2122   -3.6152    0.0000 C   0  0  0  0  0  0           0  0  0
    1.2104   -1.9622    0.0000 C   0  0  0  0  0  0           0  0  0
    4.0625   -3.6125    0.0000 O   0  0  0  0  0  0           0  0  0
   -0.2208   -1.9583    0.0000 O   0  0  0  0  0  0           0  0  0
   -0.9375   -2.3667    0.0000 C   0  0  0  0  0  0           0  0  0
    6.1792   -2.3250    0.0000 N   0  0  0  0  0  0           0  0  0
  9 14  1  0     0  0
  6  7  1  0     0  0
 11 15  1  0     0  0
 16 17  1  0     0  0
  3  4  2  0     0  0
  5  8  1  0     0  0
  9 10  1  0     0  0
  4  5  1  0     0  0
 16 20  1  0     0  0
 17 18  1  0     0  0
 18 19  1  0     0  0
 19 14  1  0     0  0
 14 20  2  0     0  0
  2  3  1  0     0  0
  5  6  2  0     0  0
 21 22  2  0     0  0
  6  1  1  0     0  0
 22 23  1  0     0  0
 23 17  2  0     0  0
 10 11  2  0     0  0
 16 24  2  0     0  0
 24 21  1  0     0  0
 11 12  1  0     0  0
 19 25  2  0     0  0
 12 13  1  0     0  0
 21 26  1  0     0  0
 13  9  2  0     0  0
 26 27  1  0     0  0
  1  2  2  0     0  0
 15 28  1  0     0  0
 28  7  2  0     0  0
M  END
>  <prID>
978

>  <IDDB>
346072

>  <pIC50_HIV_Integrase>
5

>  <Q>
-0.056451775

>  <Activity_Integrase>
Inactive_Integrase

NA
NA
NA
NA
$$$$

  Accelrys05311914292D 1   1.00000     0.00000     0

 32 34  0     0  0            999 V2000
    6.4652   -1.2500    0.0000 C   0  0  0  0  0  0           0  0  0
    6.4641   -2.0773    0.0000 C   0  0  0  0  0  0           0  0  0
    7.1789   -2.4902    0.0000 C   0  0  0  0  0  0           0  0  0
    7.8953   -2.0769    0.0000 C   0  0  0  0  0  0           0  0  0
    7.8925   -1.2463    0.0000 C   0  0  0  0  0  0           0  0  0
    7.1771   -0.8372    0.0000 C   0  0  0  0  0  0           0  0  0
    3.6159   -1.2565    0.0000 C   0  0  0  0  0  0           0  0  0
    4.3284   -0.8440    0.0000 N   0  0  0  0  0  0           0  0  0
    5.0409   -1.2523    0.0000 C   0  0  0  0  0  0           0  0  0
    5.7534   -0.8398    0.0000 C   0  0  0  0  0  0           0  0  0
    2.1887   -1.2601    0.0000 C   0  0  0  0  0  0           0  0  0
    2.1875   -2.0875    0.0000 C   0  0  0  0  0  0           0  0  0
    2.9023   -2.5004    0.0000 C   0  0  0  0  0  0           0  0  0
    3.6188   -2.0870    0.0000 C   0  0  0  0  0  0           0  0  0
    2.9005   -0.8474    0.0000 C   0  0  0  0  0  0           0  0  0
   -2.0931   -1.2500    0.0000 C   0  0  0  0  0  0           0  0  0
   -2.0943   -2.0773    0.0000 C   0  0  0  0  0  0           0  0  0
   -1.3794   -2.4902    0.0000 C   0  0  0  0  0  0           0  0  0
   -0.6630   -2.0769    0.0000 C   0  0  0  0  0  0           0  0  0
   -0.6659   -1.2463    0.0000 C   0  0  0  0  0  0           0  0  0
   -1.3812   -0.8372    0.0000 C   0  0  0  0  0  0           0  0  0
    0.0500   -2.4917    0.0000 C   0  0  0  0  0  0           0  0  0
    0.7625   -2.0833    0.0000 C   0  0  0  0  0  0           0  0  0
    1.4750   -2.4958    0.0000 N   0  0  0  0  0  0           0  0  0
    0.7583   -1.2583    0.0000 O   0  0  0  0  0  0           0  0  0
    5.0333   -2.0750    0.0000 O   0  0  0  0  0  0           0  0  0
    2.8958   -0.0208    0.0000 C   0  0  0  0  0  0           0  0  0
    2.1792    0.3917    0.0000 O   0  0  0  0  0  0           0  0  0
    3.6083    0.3958    0.0000 O   0  0  0  0  0  0           0  0  0
    2.8958   -3.3250    0.0000 C   0  0  0  0  0  0           0  0  0
    3.6083   -3.7375    0.0000 O   0  0  0  0  0  0           0  0  0
    2.1792   -3.7333    0.0000 O   0  0  0  0  0  0           0  0  0
  7  8  1  0     0  0
 16 17  2  0     0  0
  8  9  1  0     0  0
 17 18  1  0     0  0
  4  5  1  0     0  0
 18 19  2  0     0  0
  9 10  1  0     0  0
 19 20  1  0     0  0
 10  1  1  0     0  0
 20 21  2  0     0  0
 21 16  1  0     0  0
  2  3  1  0     0  0
 19 22  1  0     0  0
  5  6  2  0     0  0
 22 23  1  0     0  0
 11 12  2  0     0  0
 23 24  1  0     0  0
 24 12  1  0     0  0
  6  1  1  0     0  0
 23 25  2  0     0  0
 12 13  1  0     0  0
  9 26  2  0     0  0
  1  2  2  0     0  0
 15 27  1  0     0  0
 13 14  2  0     0  0
 27 28  2  0     0  0
 14  7  1  0     0  0
 27 29  1  0     0  0
  3  4  2  0     0  0
 13 30  1  0     0  0
  7 15  2  0     0  0
 30 31  2  0     0  0
 15 11  1  0     0  0
 30 32  1  0     0  0
M  END
>  <prID>
979

>  <IDDB>
346073

>  <pIC50_HIV_Integrase>
5.15490196

>  <Q>
-2.222481187

>  <Activity_Integrase>
Inactive_Integrase

NA
NA
NA
NA
$$$$

  Accelrys05311914292D 1   1.00000     0.00000     0

 38 42  0     0  0            999 V2000
   -0.6639    1.1167    0.0000 C   0  0  0  0  0  0           0  0  0
   -0.6651    0.2893    0.0000 C   0  0  0  0  0  0           0  0  0
    0.0497   -0.1235    0.0000 C   0  0  0  0  0  0           0  0  0
    0.7662    0.2898    0.0000 C   0  0  0  0  0  0           0  0  0
    0.7633    1.1203    0.0000 C   0  0  0  0  0  0           0  0  0
    0.0479    1.5295    0.0000 C   0  0  0  0  0  0           0  0  0
   -1.3806   -0.9542    0.0000 C   0  0  0  0  0  0           0  0  0
   -1.3818   -0.1268    0.0000 C   0  0  0  0  0  0           0  0  0
    0.0466   -0.9578    0.0000 C   0  0  0  0  0  0           0  0  0
   -0.6687   -1.3670    0.0000 C   0  0  0  0  0  0           0  0  0
    5.0361   -3.8541    0.0000 C   0  0  0  0  0  0           0  0  0
    5.0349   -4.6815    0.0000 C   0  0  0  0  0  0           0  0  0
    5.7497   -5.0944    0.0000 C   0  0  0  0  0  0           0  0  0
    6.4662   -4.6810    0.0000 C   0  0  0  0  0  0           0  0  0
    6.4633   -3.8505    0.0000 C   0  0  0  0  0  0           0  0  0
    5.7479   -3.4414    0.0000 C   0  0  0  0  0  0           0  0  0
    5.7516   -2.6102    0.0000 C   0  0  0  0  0  0           0  0  0
    6.4664   -2.1973    0.0000 C   0  0  0  0  0  0           0  0  0
    7.1828   -2.6106    0.0000 C   0  0  0  0  0  0           0  0  0
    7.1800   -3.4412    0.0000 C   0  0  0  0  0  0           0  0  0
    3.6159   -2.1935    0.0000 C   0  0  0  0  0  0           0  0  0
    4.3284   -2.6060    0.0000 N   0  0  0  0  0  0           0  0  0
    5.0409   -2.1977    0.0000 C   0  0  0  0  0  0           0  0  0
    2.1887   -2.1899    0.0000 C   0  0  0  0  0  0           0  0  0
    2.1875   -1.3625    0.0000 C   0  0  0  0  0  0           0  0  0
    2.9023   -0.9496    0.0000 C   0  0  0  0  0  0           0  0  0
    3.6188   -1.3630    0.0000 C   0  0  0  0  0  0           0  0  0
    2.9005   -2.6026    0.0000 C   0  0  0  0  0  0           0  0  0
    0.7625   -1.3667    0.0000 C   0  0  0  0  0  0           0  0  0
    1.4750   -0.9542    0.0000 N   0  0  0  0  0  0           0  0  0
    0.7583   -2.1917    0.0000 O   0  0  0  0  0  0           0  0  0
    5.0333   -1.3750    0.0000 O   0  0  0  0  0  0           0  0  0
    2.8958   -3.4292    0.0000 C   0  0  0  0  0  0           0  0  0
    2.1792   -3.8417    0.0000 O   0  0  0  0  0  0           0  0  0
    3.6083   -3.8458    0.0000 O   0  0  0  0  0  0           0  0  0
    2.8958   -0.1250    0.0000 C   0  0  0  0  0  0           0  0  0
    3.6083    0.2875    0.0000 O   0  0  0  0  0  0           0  0  0
    2.1792    0.2833    0.0000 O   0  0  0  0  0  0           0  0  0
  3  9  1  0     0  0
 18 19  2  0     0  0
  4  5  1  0     0  0
 19 20  1  0     0  0
 20 15  2  0     0  0
  9 10  2  0     0  0
 10  7  1  0     0  0
 21 22  1  0     0  0
  2  3  1  0     0  0
 22 23  1  0     0  0
 23 17  1  0     0  0
  5  6  2  0     0  0
 11 12  2  0     0  0
 24 25  2  0     0  0
  6  1  1  0     0  0
 25 26  1  0     0  0
 12 13  1  0     0  0
 26 27  2  0     0  0
 27 21  1  0     0  0
  1  2  2  0     0  0
 21 28  2  0     0  0
 28 24  1  0     0  0
 13 14  2  0     0  0
  9 29  1  0     0  0
  3  4  2  0     0  0
 29 30  1  0     0  0
 30 25  1  0     0  0
 14 15  1  0     0  0
 29 31  2  0     0  0
  7  8  2  0     0  0
 23 32  2  0     0  0
 15 16  1  0     0  0
 28 33  1  0     0  0
 16 11  1  0     0  0
 33 34  2  0     0  0
  8  2  1  0     0  0
 33 35  1  0     0  0
 16 17  2  0     0  0
 26 36  1  0     0  0
 36 37  2  0     0  0
 17 18  1  0     0  0
 36 38  1  0     0  0
M  END
>  <prID>
980

>  <IDDB>
346074

>  <pIC50_HIV_Integrase>
4.677780705

>  <Q>
-0.807880717

>  <Activity_Integrase>
Inactive_Integrase

NA
NA
NA
NA
$$$$

  Accelrys05311914292D 1   1.00000     0.00000     0

 26 28  0     0  0            999 V2000
    7.5333   -6.1125    0.0000 N   0  0  0  0  0  0           0  0  0
    8.3583   -6.1125    0.0000 C   0  0  0  0  0  0           0  0  0
    8.6151   -5.3284    0.0000 N   0  0  0  0  0  0           0  0  0
    7.9458   -4.8417    0.0000 C   0  0  0  0  0  0           0  0  0
    7.2808   -5.3284    0.0000 C   0  0  0  0  0  0           0  0  0
    2.2819   -6.5583    0.0000 C   0  0  0  0  0  0           0  0  0
    2.2807   -7.3857    0.0000 C   0  0  0  0  0  0           0  0  0
    2.9956   -7.7985    0.0000 C   0  0  0  0  0  0           0  0  0
    3.7120   -7.3852    0.0000 C   0  0  0  0  0  0           0  0  0
    3.7091   -6.5547    0.0000 C   0  0  0  0  0  0           0  0  0
    2.9938   -6.1455    0.0000 C   0  0  0  0  0  0           0  0  0
    5.1492   -4.9102    0.0000 C   0  0  0  0  0  0           0  0  0
    5.8617   -5.3227    0.0000 N   0  0  0  0  0  0           0  0  0
    6.5742   -4.9143    0.0000 C   0  0  0  0  0  0           0  0  0
    3.7220   -4.9065    0.0000 C   0  0  0  0  0  0           0  0  0
    3.7208   -4.0792    0.0000 C   0  0  0  0  0  0           0  0  0
    4.4356   -3.6663    0.0000 C   0  0  0  0  0  0           0  0  0
    5.1521   -4.0796    0.0000 C   0  0  0  0  0  0           0  0  0
    4.4338   -5.3193    0.0000 C   0  0  0  0  0  0           0  0  0
    6.5667   -4.0917    0.0000 O   0  0  0  0  0  0           0  0  0
    4.4292   -6.1458    0.0000 C   0  0  0  0  0  0           0  0  0
    5.1417   -6.5625    0.0000 O   0  0  0  0  0  0           0  0  0
    2.8667   -3.6208    0.0000 Br  0  0  0  0  0  0           0  0  0
    7.9375   -4.0167    0.0000 C   0  0  0  0  0  0           0  0  0
    7.2208   -3.6042    0.0000 O   0  0  0  0  0  0           0  0  0
    8.6500   -3.6000    0.0000 O   0  0  0  0  0  0           0  0  0
  6  7  2  0     0  0
 13 14  1  0     0  0
 14  5  1  0     0  0
  2  3  1  0     0  0
  7  8  1  0     0  0
 15 16  2  0     0  0
  3  4  1  0     0  0
 16 17  1  0     0  0
  8  9  2  0     0  0
 17 18  2  0     0  0
 18 12  1  0     0  0
  4  5  2  0     0  0
 12 19  2  0     0  0
 19 15  1  0     0  0
  9 10  1  0     0  0
 14 20  2  0     0  0
  5  1  1  0     0  0
 19 21  1  0     0  0
 10 11  2  0     0  0
 21 22  2  0     0  0
 11  6  1  0     0  0
 16 23  1  0     0  0
 21 10  1  0     0  0
  1  2  2  0     0  0
  4 24  1  0     0  0
 24 25  2  0     0  0
 12 13  1  0     0  0
 24 26  1  0     0  0
M  END
>  <prID>
981

>  <IDDB>
346075

>  <pIC50_HIV_Integrase>
4.769551079

>  <Q>
-0.940097186

>  <Activity_Integrase>
Inactive_Integrase

NA
NA
NA
NA
$$$$

  Accelrys05311914292D 1   1.00000     0.00000     0

 27 29  0     0  0            999 V2000
    3.7777   -1.0545    0.0000 C   0  0  0  0  0  0           0  0  0
    3.7600   -1.8793    0.0000 C   0  0  0  0  0  0           0  0  0
    4.5384   -2.1529    0.0000 C   0  0  0  0  0  0           0  0  0
    5.0394   -1.4943    0.0000 N   0  0  0  0  0  0           0  0  0
    4.5671   -0.8189    0.0000 C   0  0  0  0  0  0           0  0  0
    4.1358    0.5558    0.0000 C   0  0  0  0  0  0           0  0  0
    3.3463    0.3082    0.0000 C   0  0  0  0  0  0           0  0  0
    3.1675   -0.4977    0.0000 C   0  0  0  0  0  0           0  0  0
    4.7435    0.0011    0.0000 C   0  0  0  0  0  0           0  0  0
    3.0667   -2.3167    0.0000 C   0  0  0  0  0  0           0  0  0
   -0.5014   -1.9083    0.0000 C   0  0  0  0  0  0           0  0  0
   -0.5026   -2.7357    0.0000 C   0  0  0  0  0  0           0  0  0
    0.2122   -3.1485    0.0000 C   0  0  0  0  0  0           0  0  0
    0.9287   -2.7352    0.0000 C   0  0  0  0  0  0           0  0  0
    0.9258   -1.9047    0.0000 C   0  0  0  0  0  0           0  0  0
    0.2104   -1.4955    0.0000 C   0  0  0  0  0  0           0  0  0
    0.8708   -3.6500    0.0000 O   0  0  0  0  0  0           0  0  0
    1.6458   -3.1458    0.0000 S   0  0  3  0  0  0           0  0  0
    2.3583   -3.5542    0.0000 N   0  0  0  0  0  0           0  0  0
    3.0708   -3.1417    0.0000 C   0  0  3  0  0  0           0  0  0
    3.7833   -3.5500    0.0000 C   0  0  0  0  0  0           0  0  0
    4.4958   -3.1375    0.0000 O   0  0  0  0  0  0           0  0  0
    1.6375   -1.4875    0.0000 N   0  3  0  0  0  0           0  0  0
    2.3500   -1.9000    0.0000 O   0  0  0  0  0  0           0  0  0
    1.6333   -0.6625    0.0000 O   0  5  0  0  0  0           0  0  0
    3.7792   -4.3750    0.0000 O   0  0  0  0  0  0           0  0  0
    2.3375   -2.7167    0.0000 O   0  0  0  0  0  0           0  0  0
  6  7  1  0     0  0
 13 14  2  0     0  0
  2  3  2  0     0  0
 14 15  1  0     0  0
  7  8  2  0     0  0
 15 16  2  0     0  0
 16 11  1  0     0  0
  8  1  1  0     0  0
  3  4  1  0     0  0
 17 18  2  0     0  0
  5  9  1  0     0  0
 18 19  1  0     0  0
  9  6  2  0     0  0
 19 20  1  0     0  0
  4  5  1  0     0  0
 20 21  1  0     0  0
  2 10  1  0     0  0
 21 22  1  0     0  0
 18 14  1  0     0  0
  5  1  2  0     0  0
 15 23  1  0     0  0
  1  2  1  0     0  0
 23 24  2  0     0  0
 11 12  2  0     0  0
 23 25  1  0     0  0
 21 26  2  0     0  0
 20 10  1  0     0  0
 12 13  1  0     0  0
 18 27  2  0     0  0
M  CHG  2  23   1  25  -1
M  END
>  <prID>
982

>  <IDDB>
346076

>  <pIC50_HIV_Integrase>
4.251811973

>  <Q>
-2.022391501

>  <Activity_Integrase>
Inactive_Integrase

NA
NA
NA
NA
$$$$

  Accelrys05311914292D 1   1.00000     0.00000     0

 32 34  0     0  0            999 V2000
   -0.0848    0.2875    0.0000 C   0  0  0  0  0  0           0  0  0
   -0.0859   -0.5398    0.0000 C   0  0  0  0  0  0           0  0  0
    0.6289   -0.9527    0.0000 C   0  0  0  0  0  0           0  0  0
    1.3453   -0.5394    0.0000 C   0  0  0  0  0  0           0  0  0
    1.3425    0.2912    0.0000 C   0  0  0  0  0  0           0  0  0
    0.6271    0.7003    0.0000 C   0  0  0  0  0  0           0  0  0
    6.3500   -3.4167    0.0000 C   0  0  0  0  0  0           0  0  0
    6.3488   -4.2440    0.0000 C   0  0  0  0  0  0           0  0  0
    7.0637   -4.6569    0.0000 C   0  0  0  0  0  0           0  0  0
    7.7801   -4.2436    0.0000 C   0  0  0  0  0  0           0  0  0
    7.7772   -3.4130    0.0000 C   0  0  0  0  0  0           0  0  0
    7.0618   -3.0039    0.0000 C   0  0  0  0  0  0           0  0  0
   -0.7772   -3.4370    0.0000 C   0  0  0  0  0  0           0  0  0
   -0.7784   -4.2643    0.0000 C   0  0  0  0  0  0           0  0  0
   -0.0636   -4.6772    0.0000 C   0  0  0  0  0  0           0  0  0
    0.6529   -4.2639    0.0000 C   0  0  0  0  0  0           0  0  0
    0.6500   -3.4333    0.0000 C   0  0  0  0  0  0           0  0  0
   -0.0654   -3.0242    0.0000 C   0  0  0  0  0  0           0  0  0
    1.3625   -3.0208    0.0000 C   0  0  0  0  0  0           0  0  0
    2.0750   -3.4292    0.0000 N   0  0  0  0  0  0           0  0  0
    2.7875   -3.0167    0.0000 C   0  0  0  0  0  0           0  0  0
    3.5000   -3.4250    0.0000 C   0  0  0  0  0  0           0  0  0
    4.2125   -3.0125    0.0000 N   0  0  0  0  0  0           0  0  0
    4.9250   -3.4208    0.0000 N   0  0  0  0  0  0           0  0  0
    5.6375   -3.0083    0.0000 C   0  0  0  0  0  0           0  0  0
    1.3583   -2.1958    0.0000 O   0  0  0  0  0  0           0  0  0
    3.4958   -4.2500    0.0000 O   0  0  0  0  0  0           0  0  0
    7.0542   -2.1750    0.0000 O   0  0  0  0  0  0           0  0  0
    7.0583   -5.4792    0.0000 Br  0  0  0  0  0  0           0  0  0
    2.7833   -2.1917    0.0000 C   0  0  0  0  0  0           0  0  0
    2.0667   -1.7792    0.0000 C   0  0  0  0  0  0           0  0  0
    2.0625   -0.9542    0.0000 C   0  0  0  0  0  0           0  0  0
 16 17  1  0     0  0
  8  9  1  0     0  0
 17 18  2  0     0  0
 18 13  1  0     0  0
  4  5  1  0     0  0
 17 19  1  0     0  0
  9 10  2  0     0  0
 19 20  1  0     0  0
  2  3  1  0     0  0
 20 21  1  0     0  0
 10 11  1  0     0  0
 21 22  1  0     0  0
  5  6  2  0     0  0
 22 23  1  0     0  0
 11 12  2  0     0  0
 23 24  1  0     0  0
 12  7  1  0     0  0
 24 25  2  0     0  0
 25  7  1  0     0  0
  6  1  1  0     0  0
 19 26  2  0     0  0
  1  2  2  0     0  0
 22 27  2  0     0  0
 13 14  2  0     0  0
 12 28  1  0     0  0
  3  4  2  0     0  0
  9 29  1  0     0  0
 14 15  1  0     0  0
 21 30  2  0     0  0
  7  8  2  0     0  0
 30 31  1  0     0  0
 15 16  2  0     0  0
 31 32  2  0     0  0
 32  4  1  0     0  0
M  END
>  <prID>
983

>  <IDDB>
346077

>  <pIC50_HIV_Integrase>
4.638272164

>  <Q>
0.142250143

>  <Activity_Integrase>
Inactive_Integrase

NA
NA
NA
NA
$$$$

  Accelrys05311914292D 1   1.00000     0.00000     0

 34 37  0     0  0            999 V2000
    7.5735   -6.1883    0.0000 C   0  0  0  0  0  0           0  0  0
    7.3250   -6.9750    0.0000 C   0  0  0  0  0  0           0  0  0
    7.9953   -7.4561    0.0000 C   0  0  0  0  0  0           0  0  0
    8.6611   -6.9645    0.0000 N   0  0  0  0  0  0           0  0  0
    8.3973   -6.1838    0.0000 C   0  0  0  0  0  0           0  0  0
    8.3692   -4.7432    0.0000 C   0  0  0  0  0  0           0  0  0
    7.5420   -4.7593    0.0000 C   0  0  0  0  0  0           0  0  0
    7.1442   -5.4826    0.0000 C   0  0  0  0  0  0           0  0  0
    8.7968   -5.4463    0.0000 C   0  0  0  0  0  0           0  0  0
    7.9885   -8.2787    0.0000 O   0  0  0  0  0  0           0  0  0
    1.6027   -3.6791    0.0000 C   0  0  0  0  0  0           0  0  0
    1.6016   -4.5065    0.0000 C   0  0  0  0  0  0           0  0  0
    2.3164   -4.9194    0.0000 C   0  0  0  0  0  0           0  0  0
    3.0328   -4.5060    0.0000 C   0  0  0  0  0  0           0  0  0
    3.0300   -3.6755    0.0000 C   0  0  0  0  0  0           0  0  0
    2.3146   -3.2664    0.0000 C   0  0  0  0  0  0           0  0  0
    0.9103   -7.4036    0.0000 C   0  0  0  0  0  0           0  0  0
    0.9091   -8.2310    0.0000 C   0  0  0  0  0  0           0  0  0
    1.6239   -8.6439    0.0000 C   0  0  0  0  0  0           0  0  0
    2.3404   -8.2305    0.0000 C   0  0  0  0  0  0           0  0  0
    2.3375   -7.4000    0.0000 C   0  0  0  0  0  0           0  0  0
    1.6221   -6.9909    0.0000 C   0  0  0  0  0  0           0  0  0
    3.0500   -6.9875    0.0000 C   0  0  0  0  0  0           0  0  0
    3.7625   -7.3958    0.0000 N   0  0  0  0  0  0           0  0  0
    4.4750   -6.9833    0.0000 C   0  0  0  0  0  0           0  0  0
    5.1875   -7.3917    0.0000 C   0  0  0  0  0  0           0  0  0
    5.9000   -6.9792    0.0000 N   0  0  0  0  0  0           0  0  0
    6.6125   -7.3875    0.0000 N   0  0  0  0  0  0           0  0  0
    3.0458   -6.1625    0.0000 O   0  0  0  0  0  0           0  0  0
    5.1833   -8.2167    0.0000 O   0  0  0  0  0  0           0  0  0
    4.4708   -6.1583    0.0000 C   0  0  0  0  0  0           0  0  0
    3.7542   -5.7458    0.0000 C   0  0  0  0  0  0           0  0  0
    3.7500   -4.9208    0.0000 C   0  0  0  0  0  0           0  0  0
    7.1250   -4.0417    0.0000 F   0  0  0  0  0  0           0  0  0
  8  1  1  0     0  0
  3  4  1  0     0  0
 17 18  2  0     0  0
  5  9  1  0     0  0
 18 19  1  0     0  0
  9  6  2  0     0  0
 19 20  2  0     0  0
  4  5  1  0     0  0
 20 21  1  0     0  0
  3 10  2  0     0  0
 21 22  2  0     0  0
 22 17  1  0     0  0
  5  1  2  0     0  0
 21 23  1  0     0  0
  1  2  1  0     0  0
 23 24  1  0     0  0
 11 12  2  0     0  0
 24 25  1  0     0  0
 25 26  1  0     0  0
 12 13  1  0     0  0
 26 27  1  0     0  0
  6  7  1  0     0  0
 27 28  1  0     0  0
 28  2  2  0     0  0
 13 14  2  0     0  0
 23 29  2  0     0  0
  2  3  1  0     0  0
 26 30  2  0     0  0
 14 15  1  0     0  0
 25 31  2  0     0  0
  7  8  2  0     0  0
 31 32  1  0     0  0
 15 16  2  0     0  0
 32 33  2  0     0  0
 33 14  1  0     0  0
 16 11  1  0     0  0
  7 34  1  0     0  0
M  END
>  <prID>
984

>  <IDDB>
346078

>  <pIC50_HIV_Integrase>
4.420216403

>  <Q>
-2.804654056

>  <Activity_Integrase>
Inactive_Integrase

NA
NA
NA
NA
$$$$

  Accelrys05311914292D 1   1.00000     0.00000     0

 29 31  0     0  0            999 V2000
    8.7027   -4.9833    0.0000 C   0  0  0  0  0  0           0  0  0
    8.7016   -5.8107    0.0000 C   0  0  0  0  0  0           0  0  0
    9.4164   -6.2235    0.0000 C   0  0  0  0  0  0           0  0  0
   10.1328   -5.8102    0.0000 C   0  0  0  0  0  0           0  0  0
   10.1300   -4.9797    0.0000 C   0  0  0  0  0  0           0  0  0
    9.4146   -4.5705    0.0000 C   0  0  0  0  0  0           0  0  0
    5.1417   -4.5833    0.0000 C   0  0  0  0  0  0           0  0  0
    5.8542   -4.9917    0.0000 S   0  0  0  0  0  0           0  0  0
    6.5667   -4.5792    0.0000 C   0  0  0  0  0  0           0  0  0
    7.2792   -4.9875    0.0000 C   0  0  0  0  0  0           0  0  0
    7.9917   -4.5750    0.0000 N   0  0  0  0  0  0           0  0  0
    3.7167   -3.7583    0.0000 C   0  0  0  0  0  0           0  0  0
    3.7167   -4.5833    0.0000 C   0  0  0  0  0  0           0  0  0
    4.4287   -4.9917    0.0000 N   0  0  0  0  0  0           0  0  0
    5.1407   -3.7583    0.0000 N   0  0  0  0  0  0           0  0  0
    4.4287   -3.3417    0.0000 C   0  0  0  0  0  0           0  0  0
    1.5800   -4.9963    0.0000 C   0  0  0  0  0  0           0  0  0
    2.2925   -4.5838    0.0000 S   0  0  0  0  0  0           0  0  0
    3.0050   -4.9963    0.0000 C   0  0  0  0  0  0           0  0  0
    0.1527   -5.0000    0.0000 C   0  0  0  0  0  0           0  0  0
    0.1516   -5.8273    0.0000 C   0  0  0  0  0  0           0  0  0
    0.8664   -6.2402    0.0000 C   0  0  0  0  0  0           0  0  0
    1.5828   -5.8269    0.0000 C   0  0  0  0  0  0           0  0  0
    0.8646   -4.5872    0.0000 C   0  0  0  0  0  0           0  0  0
    4.4208   -2.5167    0.0000 O   0  0  0  0  0  0           0  0  0
    7.2750   -5.8125    0.0000 O   0  0  0  0  0  0           0  0  0
   -0.5667   -6.2333    0.0000 Cl  0  0  0  0  0  0           0  0  0
    7.9833   -6.2167    0.0000 Cl  0  0  0  0  0  0           0  0  0
   10.8417   -6.2208    0.0000 Cl  0  0  0  0  0  0           0  0  0
 12 16  1  0     0  0
 13 14  1  0     0  0
 14  7  2  0     0  0
  7 15  1  0     0  0
 15 16  1  0     0  0
  8  9  1  0     0  0
 17 18  1  0     0  0
  4  5  1  0     0  0
 18 19  1  0     0  0
 19 13  1  0     0  0
  9 10  1  0     0  0
  2  3  1  0     0  0
 20 21  2  0     0  0
 10 11  1  0     0  0
 21 22  1  0     0  0
 11  1  1  0     0  0
 22 23  2  0     0  0
 23 17  1  0     0  0
 12 13  2  0     0  0
 17 24  2  0     0  0
 24 20  1  0     0  0
  5  6  2  0     0  0
 16 25  2  0     0  0
  6  1  1  0     0  0
 10 26  2  0     0  0
  1  2  2  0     0  0
 21 27  1  0     0  0
  3  4  2  0     0  0
  2 28  1  0     0  0
  7  8  1  0     0  0
  4 29  1  0     0  0
M  END
>  <prID>
985

>  <IDDB>
346079

>  <pIC50_HIV_Integrase>
4.619788758

>  <Q>
-2.147828853

>  <Activity_Integrase>
Inactive_Integrase

NA
NA
NA
NA
$$$$

  Accelrys05311914292D 1   1.00000     0.00000     0

 27 29  0     0  0            999 V2000
    7.2089   -5.4446    0.0000 N   0  0  0  0  0  0           0  0  0
    7.7742   -4.8438    0.0000 C   0  0  0  0  0  0           0  0  0
    7.3791   -4.1194    0.0000 C   0  0  0  0  0  0           0  0  0
    6.5660   -4.2734    0.0000 C   0  0  0  0  0  0           0  0  0
    6.4648   -5.0913    0.0000 C   0  0  0  0  0  0           0  0  0
    8.5997   -4.8457    0.0000 C   0  0  0  0  0  0           0  0  0
    9.0151   -4.1304    0.0000 C   0  0  0  0  0  0           0  0  0
    8.5989   -3.4117    0.0000 C   0  0  0  0  0  0           0  0  0
    7.7748   -3.4133    0.0000 C   0  0  0  0  0  0           0  0  0
    9.0082   -2.6955    0.0000 Br  0  0  0  0  0  0           0  0  0
    5.7463   -5.5159    0.0000 O   0  0  0  0  0  0           0  0  0
    1.5800   -3.8620    0.0000 C   0  0  0  0  0  0           0  0  0
    2.2925   -4.2745    0.0000 C   0  0  0  0  0  0           0  0  0
    3.0050   -3.8620    0.0000 C   0  0  0  0  0  0           0  0  0
    3.7175   -4.2745    0.0000 C   0  0  0  0  0  0           0  0  0
    4.4300   -3.8620    0.0000 C   0  0  0  0  0  0           0  0  0
    5.1425   -4.2745    0.0000 N   0  0  0  0  0  0           0  0  0
    5.8550   -3.8620    0.0000 N   0  0  0  0  0  0           0  0  0
    0.1527   -3.8584    0.0000 C   0  0  0  0  0  0           0  0  0
    0.1516   -3.0310    0.0000 C   0  0  0  0  0  0           0  0  0
    0.8664   -2.6181    0.0000 C   0  0  0  0  0  0           0  0  0
    1.5828   -3.0315    0.0000 C   0  0  0  0  0  0           0  0  0
    0.8646   -4.2711    0.0000 C   0  0  0  0  0  0           0  0  0
   -0.5667   -2.6250    0.0000 Cl  0  0  0  0  0  0           0  0  0
    2.2875   -5.0958    0.0000 O   0  0  0  0  0  0           0  0  0
    3.7125   -5.0958    0.0000 O   0  0  0  0  0  0           0  0  0
    4.4250   -3.0333    0.0000 O   0  0  0  0  0  0           0  0  0
 13 14  1  0     0  0
  6  7  2  0     0  0
 14 15  2  0     0  0
  2  3  2  0     0  0
 15 16  1  0     0  0
  7  8  1  0     0  0
 16 17  1  0     0  0
  3  4  1  0     0  0
 17 18  1  0     0  0
 18  4  2  0     0  0
  8  9  2  0     0  0
  9  3  1  0     0  0
 19 20  2  0     0  0
  4  5  1  0     0  0
 20 21  1  0     0  0
  8 10  1  0     0  0
 21 22  2  0     0  0
 22 12  1  0     0  0
  5  1  1  0     0  0
 12 23  2  0     0  0
 23 19  1  0     0  0
  5 11  2  0     0  0
 20 24  1  0     0  0
  1  2  1  0     0  0
 13 25  2  0     0  0
  2  6  1  0     0  0
 15 26  1  0     0  0
 12 13  1  0     0  0
 16 27  2  0     0  0
M  END
>  <prID>
986

>  <IDDB>
346080

>  <pIC50_HIV_Integrase>
4.552841969

>  <Q>
-2.248429255

>  <Activity_Integrase>
Inactive_Integrase

NA
NA
NA
NA
$$$$

  Accelrys05311914292D 1   1.00000     0.00000     0

 26 27  0     0  0            999 V2000
    8.5708   -3.2916    0.0000 O   0  0  0  0  0  0           0  0  0
    9.2401   -2.8092    0.0000 C   0  0  0  0  0  0           0  0  0
    8.9833   -2.0209    0.0000 C   0  0  0  0  0  0           0  0  0
    8.1583   -2.0209    0.0000 C   0  0  0  0  0  0           0  0  0
    7.9015   -2.8092    0.0000 C   0  0  0  0  0  0           0  0  0
   -0.6556   -1.9666    0.0000 C   0  0  0  0  0  0           0  0  0
   -0.6568   -2.7940    0.0000 C   0  0  0  0  0  0           0  0  0
    0.0581   -3.2069    0.0000 C   0  0  0  0  0  0           0  0  0
    0.7745   -2.7935    0.0000 C   0  0  0  0  0  0           0  0  0
    0.7716   -1.9630    0.0000 C   0  0  0  0  0  0           0  0  0
    0.0563   -1.5539    0.0000 C   0  0  0  0  0  0           0  0  0
    1.4875   -3.2042    0.0000 C   0  0  0  0  0  0           0  0  0
    2.2000   -2.7958    0.0000 C   0  0  0  0  0  0           0  0  0
    2.9125   -3.2083    0.0000 N   0  0  0  0  0  0           0  0  0
    3.6250   -2.8000    0.0000 C   0  0  0  0  0  0           0  0  0
    4.3375   -3.2125    0.0000 C   0  0  0  0  0  0           0  0  0
    5.0500   -2.8042    0.0000 C   0  0  0  0  0  0           0  0  0
    5.7625   -3.2167    0.0000 N   0  0  0  0  0  0           0  0  0
    6.4750   -2.8083    0.0000 N   0  0  0  0  0  0           0  0  0
    7.1875   -3.2208    0.0000 C   0  0  0  0  0  0           0  0  0
   -1.3750   -1.5500    0.0000 O   0  0  0  0  0  0           0  0  0
   -2.0917   -1.9583    0.0000 C   0  0  0  0  0  0           0  0  0
   -1.3750   -3.2000    0.0000 O   0  0  0  0  0  0           0  0  0
   -2.0917   -2.7875    0.0000 C   0  0  0  0  0  0           0  0  0
    3.6208   -1.9750    0.0000 O   0  0  0  0  0  0           0  0  0
    5.0458   -1.9792    0.0000 O   0  0  0  0  0  0           0  0  0
 12 13  1  0     0  0
  6  7  2  0     0  0
 13 14  1  0     0  0
  2  3  2  0     0  0
 14 15  1  0     0  0
  7  8  1  0     0  0
 15 16  1  0     0  0
  1  2  1  0     0  0
 16 17  1  0     0  0
  8  9  2  0     0  0
 17 18  1  0     0  0
  3  4  1  0     0  0
 18 19  1  0     0  0
  9 10  1  0     0  0
 19 20  2  0     0  0
 20  5  1  0     0  0
  5  1  1  0     0  0
  6 21  1  0     0  0
 10 11  2  0     0  0
 21 22  1  0     0  0
 11  6  1  0     0  0
  7 23  1  0     0  0
 23 24  1  0     0  0
  9 12  1  0     0  0
 15 25  2  0     0  0
  4  5  2  0     0  0
 17 26  2  0     0  0
M  END
>  <prID>
987

>  <IDDB>
346081

>  <pIC50_HIV_Integrase>
4.045757491

>  <Q>
-2.037307372

>  <Activity_Integrase>
Inactive_Integrase

NA
NA
NA
NA
$$$$

  Accelrys05311914292D 1   1.00000     0.00000     0

 20 21  0     0  0            999 V2000
    3.5257   -5.1386    0.0000 C   0  0  0  0  0  0           0  0  0
    2.5567   -5.8392    0.0000 C   0  0  0  0  0  0           0  0  0
    2.9261   -6.9736    0.0000 C   0  0  0  0  0  0           0  0  0
    4.1193   -6.9736    0.0000 O   0  0  0  0  0  0           0  0  0
    4.4889   -5.8392    0.0000 C   0  0  0  0  0  0           0  0  0
   11.6664   -4.0353    0.0000 C   0  0  0  0  0  0           0  0  0
   11.6664   -5.2260    0.0000 C   0  0  0  0  0  0           0  0  0
   12.6935   -5.8202    0.0000 C   0  0  0  0  0  0           0  0  0
   13.7244   -5.2253    0.0000 C   0  0  0  0  0  0           0  0  0
   13.7244   -4.0301    0.0000 C   0  0  0  0  0  0           0  0  0
   12.6909   -3.4414    0.0000 C   0  0  0  0  0  0           0  0  0
    5.5164   -5.2466    0.0000 C   0  0  0  0  0  0           0  0  0
    6.5417   -5.8343    0.0000 C   0  0  0  0  0  0           0  0  0
    7.5671   -5.2407    0.0000 C   0  0  0  0  0  0           0  0  0
    8.5924   -5.8282    0.0000 N   0  0  0  0  0  0           0  0  0
    9.6178   -5.2346    0.0000 C   0  0  0  0  0  0           0  0  0
   10.6431   -5.8222    0.0000 N   0  0  0  0  0  0           0  0  0
    7.5671   -4.0534    0.0000 O   0  0  0  0  0  0           0  0  0
    9.6178   -4.0474    0.0000 S   0  0  0  0  0  0           0  0  0
   10.6312   -3.4358    0.0000 O   0  0  0  0  0  0           0  0  0
  5  1  2  0     0  0
 10 11  2  0     0  0
 11  6  1  0     0  0
  2  3  2  0     0  0
  5 12  1  0     0  0
 12 13  2  0     0  0
  6  7  2  0     0  0
 13 14  1  0     0  0
  1  2  1  0     0  0
 14 15  1  0     0  0
  7  8  1  0     0  0
 15 16  1  0     0  0
  3  4  1  0     0  0
 16 17  1  0     0  0
 17  7  1  0     0  0
  8  9  2  0     0  0
 14 18  2  0     0  0
  4  5  1  0     0  0
 16 19  2  0     0  0
  9 10  1  0     0  0
  6 20  1  0     0  0
M  END
>  <prID>
988

>  <IDDB>
346082

>  <pIC50_HIV_Integrase>
4.552841969

>  <Q>
0.611062005

>  <Activity_Integrase>
Inactive_Integrase

NA
NA
NA
NA
$$$$

  Accelrys05311914292D 1   1.00000     0.00000     0

 36 40  0     0  0            999 V2000
    6.3484   -6.2791    0.0000 C   0  0  0  0  0  0           0  0  0
    6.5500   -7.0815    0.0000 C   0  0  0  0  0  0           0  0  0
    7.3442   -7.3067    0.0000 C   0  0  0  0  0  0           0  0  0
    7.9375   -6.7304    0.0000 C   0  0  0  0  0  0           0  0  0
    7.7313   -5.9259    0.0000 C   0  0  0  0  0  0           0  0  0
    6.9375   -5.7045    0.0000 C   0  0  0  0  0  0           0  0  0
    2.2747   -5.9347    0.0000 C   0  0  0  0  0  0           0  0  0
    2.0381   -6.7275    0.0000 C   0  0  0  0  0  0           0  0  0
    2.6059   -7.3267    0.0000 C   0  0  0  0  0  0           0  0  0
    3.4103   -7.1344    0.0000 C   0  0  0  0  0  0           0  0  0
    3.6439   -6.3374    0.0000 C   0  0  0  0  0  0           0  0  0
    3.0745   -5.7416    0.0000 C   0  0  0  0  0  0           0  0  0
    6.7223   -4.9141    0.0000 N   0  0  3  0  0  0           0  0  0
    5.9389   -4.6554    0.0000 C   0  0  0  0  0  0           0  0  0
    5.9409   -3.8303    0.0000 C   0  0  0  0  0  0           0  0  0
    6.7291   -3.5780    0.0000 C   0  0  0  0  0  0           0  0  0
    7.2080   -4.2487    0.0000 N   0  0  3  0  0  0           0  0  0
    3.2902   -4.9474    0.0000 N   0  0  3  0  0  0           0  0  0
    4.0736   -4.6887    0.0000 C   0  0  0  0  0  0           0  0  0
    4.0716   -3.8636    0.0000 C   0  0  0  0  0  0           0  0  0
    3.2834   -3.6113    0.0000 C   0  0  0  0  0  0           0  0  0
    2.8045   -4.2821    0.0000 N   0  0  0  0  0  0           0  0  0
    4.2402   -1.2541    0.0000 C   0  0  0  0  0  0           0  0  0
    4.2391   -2.0815    0.0000 C   0  0  0  0  0  0           0  0  0
    4.9539   -2.4944    0.0000 C   0  0  0  0  0  0           0  0  0
    5.6703   -2.0810    0.0000 C   0  0  0  0  0  0           0  0  0
    5.6675   -1.2505    0.0000 C   0  0  0  0  0  0           0  0  0
    4.9521   -0.8414    0.0000 C   0  0  0  0  0  0           0  0  0
    4.9458   -3.3167    0.0000 C   0  0  3  0  0  0           0  0  0
    4.9458   -0.0125    0.0000 O   0  0  0  0  0  0           0  0  0
    6.3792   -0.8333    0.0000 O   0  0  0  0  0  0           0  0  0
    3.0667   -2.8083    0.0000 C   0  0  0  0  0  0           0  0  0
    6.9375   -2.7750    0.0000 C   0  0  0  0  0  0           0  0  0
    8.0292   -4.2458    0.0000 C   0  0  0  0  0  0           0  0  0
    4.7042   -5.1958    0.0000 O   0  0  0  0  0  0           0  0  0
    5.3500   -5.2375    0.0000 O   0  0  0  0  0  0           0  0  0
  8  9  1  0     0  0
  4  5  1  0     0  0
  9 10  2  0     0  0
  2  3  1  0     0  0
 10 11  1  0     0  0
 19 20  1  0     0  0
 20 21  2  0     0  0
 21 22  1  0     0  0
 22 18  1  0     0  0
  5  6  2  0     0  0
 11 12  2  0     0  0
 23 24  2  0     0  0
 12  7  1  0     0  0
 24 25  1  0     0  0
 13 14  1  0     0  0
 25 26  2  0     0  0
  6  1  1  0     0  0
 26 27  1  0     0  0
  1  2  2  0     0  0
 27 28  2  0     0  0
 28 23  1  0     0  0
  3  4  2  0     0  0
 25 29  1  0     0  0
  7  8  2  0     0  0
 28 30  1  0     0  0
 27 31  1  0     0  0
 29 20  1  0     0  0
 29 15  1  0     0  0
 14 15  1  0     0  0
 21 32  1  0     0  0
 15 16  2  0     0  0
 16 33  1  0     0  0
 16 17  1  0     0  0
 17 34  1  0     0  0
 13  6  1  0     0  0
 18 12  1  0     0  0
 17 13  1  0     0  0
 19 35  2  0     0  0
 18 19  1  0     0  0
 14 36  2  0     0  0
M  END
>  <prID>
989

>  <IDDB>
346083

>  <pIC50_HIV_Integrase>
4.508638306

>  <Q>
-1.51467991

>  <Activity_Integrase>
Inactive_Integrase

NA
NA
NA
NA
$$$$

  Accelrys05311914292D 1   1.00000     0.00000     0

 30 32  0     0  0            999 V2000
    7.0027   -3.3625    0.0000 C   0  0  0  0  0  0           0  0  0
    7.0016   -4.1898    0.0000 C   0  0  0  0  0  0           0  0  0
    7.7164   -4.6027    0.0000 C   0  0  0  0  0  0           0  0  0
    8.4328   -4.1894    0.0000 C   0  0  0  0  0  0           0  0  0
    8.4300   -3.3588    0.0000 C   0  0  0  0  0  0           0  0  0
    7.7146   -2.9497    0.0000 C   0  0  0  0  0  0           0  0  0
    4.1541   -3.3583    0.0000 C   0  0  3  0  0  0           0  0  0
    4.8666   -2.9458    0.0000 C   0  0  0  0  0  0           0  0  0
    5.5791   -3.3583    0.0000 C   0  0  0  0  0  0           0  0  0
    6.2916   -2.9458    0.0000 N   0  0  0  0  0  0           0  0  0
    3.3291   -3.3583    0.0000 O   0  0  0  0  0  0           0  0  0
    4.4109   -4.1424    0.0000 C   0  0  0  0  0  0           0  0  0
    3.7416   -4.6292    0.0000 N   0  0  0  0  0  0           0  0  0
    3.0766   -4.1424    0.0000 C   0  0  0  0  0  0           0  0  0
   -1.2009   -3.3106    0.0000 C   0  0  0  0  0  0           0  0  0
   -1.2021   -4.1380    0.0000 C   0  0  0  0  0  0           0  0  0
   -0.4873   -4.5509    0.0000 C   0  0  0  0  0  0           0  0  0
    0.2292   -4.1375    0.0000 C   0  0  0  0  0  0           0  0  0
    0.2263   -3.3070    0.0000 C   0  0  0  0  0  0           0  0  0
   -0.4891   -2.8978    0.0000 C   0  0  0  0  0  0           0  0  0
    0.9417   -4.5500    0.0000 C   0  0  0  0  0  0           0  0  0
    1.6542   -4.1417    0.0000 N   0  0  0  0  0  0           0  0  0
    2.3667   -4.5542    0.0000 N   0  0  0  0  0  0           0  0  0
   -1.9208   -2.8958    0.0000 O   0  0  0  0  0  0           0  0  0
   -1.9208   -4.5458    0.0000 O   0  0  0  0  0  0           0  0  0
   -2.6375   -4.1333    0.0000 C   0  0  0  0  0  0           0  0  0
    9.1417   -4.6000    0.0000 Cl  0  0  0  0  0  0           0  0  0
    9.1417   -2.9417    0.0000 Cl  0  0  0  0  0  0           0  0  0
    5.1208   -4.5542    0.0000 O   0  0  0  0  0  0           0  0  0
    5.5708   -4.1792    0.0000 O   0  0  0  0  0  0           0  0  0
  3  4  2  0     0  0
  7  8  1  0     0  0
 15 16  2  0     0  0
 16 17  1  0     0  0
  8  9  1  0     0  0
 17 18  2  0     0  0
  4  5  1  0     0  0
 18 19  1  0     0  0
  9 10  1  0     0  0
 19 20  2  0     0  0
 20 15  1  0     0  0
 10  1  1  0     0  0
 18 21  1  0     0  0
 11  7  1  0     0  0
 21 22  2  0     0  0
  2  3  1  0     0  0
 22 23  1  0     0  0
 23 14  2  0     0  0
  5  6  2  0     0  0
 15 24  1  0     0  0
  6  1  1  0     0  0
 16 25  1  0     0  0
  1  2  2  0     0  0
 25 26  1  0     0  0
  7 12  1  0     0  0
  4 27  1  0     0  0
 12 13  2  0     0  0
  5 28  1  0     0  0
 13 14  1  0     0  0
 12 29  1  0     0  0
 14 11  1  0     0  0
  9 30  2  0     0  0
M  END
>  <prID>
990

>  <IDDB>
346084

>  <pIC50_HIV_Integrase>
4.420216403

>  <Q>
-4.607968571

>  <Activity_Integrase>
Inactive_Integrase

NA
NA
NA
NA
$$$$

  Accelrys05311914292D 1   1.00000     0.00000     0

 31 34  0     0  0            999 V2000
    9.2161   -1.1437    0.0000 C   0  0  0  0  0  0           0  0  0
    8.7860   -1.8505    0.0000 C   0  0  0  0  0  0           0  0  0
    9.1830   -2.5742    0.0000 C   0  0  0  0  0  0           0  0  0
   10.0099   -2.5924    0.0000 C   0  0  0  0  0  0           0  0  0
   10.4382   -1.8808    0.0000 C   0  0  0  0  0  0           0  0  0
   10.0388   -1.1600    0.0000 C   0  0  0  0  0  0           0  0  0
    4.2436   -3.9481    0.0000 C   0  0  0  0  0  0           0  0  0
    5.0669   -3.9560    0.0000 S   0  0  0  0  0  0           0  0  0
    5.4836   -3.2459    0.0000 C   0  0  0  0  0  0           0  0  0
    6.3069   -3.2538    0.0000 C   0  0  0  0  0  0           0  0  0
    6.7236   -2.5438    0.0000 N   0  0  0  0  0  0           0  0  0
    7.5469   -2.5516    0.0000 N   0  0  0  0  0  0           0  0  0
    7.9636   -1.8416    0.0000 C   0  0  0  0  0  0           0  0  0
    1.5736   -1.2333    0.0000 C   0  0  0  0  0  0           0  0  0
    1.5724   -2.0607    0.0000 C   0  0  0  0  0  0           0  0  0
    2.2872   -2.4735    0.0000 C   0  0  0  0  0  0           0  0  0
    3.0037   -2.0602    0.0000 C   0  0  0  0  0  0           0  0  0
    3.0008   -1.2297    0.0000 C   0  0  0  0  0  0           0  0  0
    2.2854   -0.8205    0.0000 C   0  0  0  0  0  0           0  0  0
    2.9931   -4.4185    0.0000 C   0  0  0  0  0  0           0  0  0
    3.7887   -4.6365    0.0000 N   0  0  0  0  0  0           0  0  0
    3.7268   -3.3018    0.0000 N   0  0  3  0  0  0           0  0  0
    2.9568   -3.5955    0.0000 C   0  0  0  0  0  0           0  0  0
    1.5611   -3.5916    0.0000 C   0  0  0  0  0  0           0  0  0
    1.5599   -4.4190    0.0000 C   0  0  0  0  0  0           0  0  0
    2.2747   -4.8319    0.0000 C   0  0  0  0  0  0           0  0  0
    2.2729   -3.1789    0.0000 C   0  0  0  0  0  0           0  0  0
    3.7208   -2.4750    0.0000 C   0  0  0  0  0  0           0  0  0
    6.7125   -3.9625    0.0000 O   0  0  0  0  0  0           0  0  0
    8.7958   -0.4250    0.0000 O   0  0  0  0  0  0           0  0  0
   10.4167   -3.3042    0.0000 Br  0  0  0  0  0  0           0  0  0
 15 16  1  0     0  0
 16 17  2  0     0  0
  8  9  1  0     0  0
 17 18  1  0     0  0
  4  5  1  0     0  0
 18 19  2  0     0  0
 19 14  1  0     0  0
 20 21  1  0     0  0
  9 10  1  0     0  0
  2  3  1  0     0  0
 10 11  1  0     0  0
  5  6  2  0     0  0
 21  7  2  0     0  0
  7 22  1  0     0  0
 22 23  1  0     0  0
 23 20  1  0     0  0
 11 12  1  0     0  0
  6  1  1  0     0  0
 24 25  2  0     0  0
 12 13  2  0     0  0
 25 26  1  0     0  0
 26 20  2  0     0  0
 13  2  1  0     0  0
 23 27  2  0     0  0
 27 24  1  0     0  0
  1  2  2  0     0  0
 22 28  1  0     0  0
 28 17  1  0     0  0
  3  4  2  0     0  0
 10 29  2  0     0  0
 14 15  2  0     0  0
  1 30  1  0     0  0
  7  8  1  0     0  0
  4 31  1  0     0  0
M  END
>  <prID>
991

>  <IDDB>
346085

>  <pIC50_HIV_Integrase>
4.2299604555

>  <Q>
0.471717691

>  <Activity_Integrase>
Inactive_Integrase

NA
NA
NA
NA
$$$$

  Accelrys05311914292D 1   1.00000     0.00000     0

 31 33  0     0  0            999 V2000
    6.8236   -9.3375    0.0000 C   0  0  0  0  0  0           0  0  0
    6.8224  -10.1648    0.0000 C   0  0  0  0  0  0           0  0  0
    7.5372  -10.5777    0.0000 C   0  0  0  0  0  0           0  0  0
    8.2537  -10.1644    0.0000 C   0  0  0  0  0  0           0  0  0
    8.2508   -9.3338    0.0000 C   0  0  0  0  0  0           0  0  0
    7.5354   -8.9247    0.0000 C   0  0  0  0  0  0           0  0  0
    7.5402   -8.0916    0.0000 C   0  0  0  0  0  0           0  0  0
    8.9703   -8.9185    0.0000 C   0  0  0  0  0  0           0  0  0
    8.9675   -8.0880    0.0000 C   0  0  0  0  0  0           0  0  0
    8.2521   -7.6789    0.0000 C   0  0  0  0  0  0           0  0  0
    1.1277   -6.8541    0.0000 C   0  0  0  0  0  0           0  0  0
    1.1266   -7.6815    0.0000 C   0  0  0  0  0  0           0  0  0
    1.8414   -8.0944    0.0000 C   0  0  0  0  0  0           0  0  0
    2.5578   -7.6810    0.0000 C   0  0  0  0  0  0           0  0  0
    2.5550   -6.8505    0.0000 C   0  0  0  0  0  0           0  0  0
    1.8396   -6.4414    0.0000 C   0  0  0  0  0  0           0  0  0
    3.2667   -8.0917    0.0000 N   0  0  3  0  0  0           0  0  0
    3.9792   -7.6792    0.0000 C   0  0  0  0  0  0           0  0  0
    4.6917   -8.0917    0.0000 C   0  0  0  0  0  0           0  0  0
    5.4042   -7.6792    0.0000 N   0  0  0  0  0  0           0  0  0
    6.1167   -8.0917    0.0000 N   0  0  0  0  0  0           0  0  0
    6.8292   -7.6792    0.0000 C   0  0  0  0  0  0           0  0  0
    0.4083   -6.4375    0.0000 O   0  0  0  0  0  0           0  0  0
   -0.3083   -6.8458    0.0000 C   0  0  0  0  0  0           0  0  0
    0.4083   -8.0875    0.0000 Cl  0  0  0  0  0  0           0  0  0
    4.6875   -8.9167    0.0000 O   0  0  0  0  0  0           0  0  0
    3.2625   -8.9167    0.0000 S   0  0  3  0  0  0           0  0  0
    8.2458   -6.8500    0.0000 O   0  0  0  0  0  0           0  0  0
    3.2583   -9.7417    0.0000 C   0  0  0  0  0  0           0  0  0
    4.0875   -8.9167    0.0000 O   0  0  0  0  0  0           0  0  0
    2.4375   -8.9167    0.0000 O   0  0  0  0  0  0           0  0  0
  3  4  2  0     0  0
 15 16  2  0     0  0
 16 11  1  0     0  0
  5  8  2  0     0  0
 14 17  1  0     0  0
 17 18  1  0     0  0
  8  9  1  0     0  0
 18 19  1  0     0  0
  4  5  1  0     0  0
 19 20  1  0     0  0
  9 10  2  0     0  0
 20 21  1  0     0  0
 10  7  1  0     0  0
 21 22  2  0     0  0
 22  7  1  0     0  0
  2  3  1  0     0  0
 11 23  1  0     0  0
  5  6  1  0     0  0
 23 24  1  0     0  0
 11 12  2  0     0  0
 12 25  1  0     0  0
  6  1  1  0     0  0
 19 26  2  0     0  0
 12 13  1  0     0  0
 17 27  1  0     0  0
  1  2  2  0     0  0
 10 28  1  0     0  0
 13 14  2  0     0  0
 27 29  1  0     0  0
  7  6  2  0     0  0
 27 30  2  0     0  0
 14 15  1  0     0  0
 27 31  2  0     0  0
M  END
>  <prID>
992

>  <IDDB>
346086

>  <pIC50_HIV_Integrase>
4.229147988

>  <Q>
-2.203041634

>  <Activity_Integrase>
Inactive_Integrase

NA
NA
NA
NA
$$$$

  Accelrys05311914292D 1   1.00000     0.00000     0

 32 34  0     0  0            999 V2000
    7.7264   -6.4053    0.0000 C   0  0  0  0  0  0           0  0  0
    7.0048   -6.0005    0.0000 C   0  0  0  0  0  0           0  0  0
    6.2956   -6.4229    0.0000 C   0  0  0  0  0  0           0  0  0
    6.3067   -7.2499    0.0000 C   0  0  0  0  0  0           0  0  0
    7.0330   -7.6528    0.0000 C   0  0  0  0  0  0           0  0  0
    7.7392   -7.2281    0.0000 C   0  0  0  0  0  0           0  0  0
    4.1425   -5.1838    0.0000 C   0  0  0  0  0  0           0  0  0
    4.8550   -4.7713    0.0000 C   0  0  0  0  0  0           0  0  0
    5.5675   -5.1797    0.0000 N   0  0  0  0  0  0           0  0  0
    6.2800   -4.7672    0.0000 N   0  0  0  0  0  0           0  0  0
    6.9925   -5.1755    0.0000 C   0  0  0  0  0  0           0  0  0
    2.7152   -5.1875    0.0000 C   0  0  0  0  0  0           0  0  0
    2.7141   -6.0148    0.0000 C   0  0  0  0  0  0           0  0  0
    3.4289   -6.4277    0.0000 C   0  0  0  0  0  0           0  0  0
    4.1453   -6.0144    0.0000 C   0  0  0  0  0  0           0  0  0
    3.4271   -4.7747    0.0000 C   0  0  0  0  0  0           0  0  0
   -0.9244   -3.9782    0.0000 C   0  0  0  0  0  0           0  0  0
   -0.8945   -4.8051    0.0000 C   0  0  0  0  0  0           0  0  0
   -0.1647   -5.1908    0.0000 C   0  0  0  0  0  0           0  0  0
    0.5358   -4.7508    0.0000 C   0  0  0  0  0  0           0  0  0
    0.5017   -3.9210    0.0000 C   0  0  0  0  0  0           0  0  0
   -0.2285   -3.5390    0.0000 C   0  0  0  0  0  0           0  0  0
   -0.9708   -6.5542    0.0000 O   0  0  0  0  0  0           0  0  0
   -0.1333   -6.0167    0.0000 C   0  0  0  0  0  0           0  0  0
    0.5792   -6.4292    0.0000 N   0  0  0  0  0  0           0  0  0
    1.2917   -6.0167    0.0000 N   0  0  0  0  0  0           0  0  0
    2.0042   -6.4292    0.0000 C   0  0  0  0  0  0           0  0  0
    1.1972   -3.4774    0.0000 O   0  0  0  0  0  0           0  0  0
   -1.6589   -3.5889    0.0000 O   0  0  0  0  0  0           0  0  0
    7.7667   -4.8083    0.0000 O   0  0  0  0  0  0           0  0  0
    8.4657   -7.6271    0.0000 O   0  0  0  0  0  0           0  0  0
    5.6023   -7.6682    0.0000 O   0  0  0  0  0  0           0  0  0
  7 16  2  0     0  0
 16 12  1  0     0  0
  8  9  2  0     0  0
 17 18  2  0     0  0
  4  5  1  0     0  0
 18 19  1  0     0  0
  9 10  1  0     0  0
 19 20  2  0     0  0
  2  3  1  0     0  0
 20 21  1  0     0  0
 10 11  1  0     0  0
 21 22  2  0     0  0
 22 17  1  0     0  0
 11  2  1  0     0  0
  5  6  2  0     0  0
 23 24  2  0     0  0
  6  1  1  0     0  0
 24 25  1  0     0  0
 12 13  2  0     0  0
 25 26  1  0     0  0
  1  2  2  0     0  0
 26 27  2  0     0  0
 27 13  1  0     0  0
 24 19  1  0     0  0
 13 14  1  0     0  0
 21 28  1  0     0  0
  3  4  2  0     0  0
 17 29  1  0     0  0
 14 15  2  0     0  0
 11 30  2  0     0  0
 15  7  1  0     0  0
  6 31  1  0     0  0
  7  8  1  0     0  0
  4 32  1  0     0  0
M  END
>  <prID>
993

>  <IDDB>
346087

>  <pIC50_HIV_Integrase>
4.251811973

>  <Q>
-2.858840577

>  <Activity_Integrase>
Inactive_Integrase

NA
NA
NA
NA
$$$$

  Accelrys05311914292D 1   1.00000     0.00000     0

 22 23  0     0  0            999 V2000
    7.9777   -9.2916    0.0000 C   0  0  0  0  0  0           0  0  0
    7.9766  -10.1190    0.0000 C   0  0  0  0  0  0           0  0  0
    8.6914  -10.5319    0.0000 C   0  0  0  0  0  0           0  0  0
    9.4078  -10.1185    0.0000 C   0  0  0  0  0  0           0  0  0
    9.4050   -9.2880    0.0000 C   0  0  0  0  0  0           0  0  0
    8.6896   -8.8789    0.0000 C   0  0  0  0  0  0           0  0  0
    0.8444   -9.3083    0.0000 C   0  0  0  0  0  0           0  0  0
    0.8432  -10.1357    0.0000 C   0  0  0  0  0  0           0  0  0
    1.5581  -10.5485    0.0000 C   0  0  0  0  0  0           0  0  0
    2.2745  -10.1352    0.0000 C   0  0  0  0  0  0           0  0  0
    2.2716   -9.3047    0.0000 C   0  0  0  0  0  0           0  0  0
    1.5563   -8.8955    0.0000 C   0  0  0  0  0  0           0  0  0
    2.9875   -8.8917    0.0000 C   0  0  0  0  0  0           0  0  0
    3.7000   -9.3000    0.0000 N   0  0  0  0  0  0           0  0  0
    4.4125   -8.8875    0.0000 C   0  0  0  0  0  0           0  0  0
    5.1250   -9.2958    0.0000 C   0  0  3  0  0  0           0  0  0
    5.8375   -8.8833    0.0000 C   0  0  0  0  0  0           0  0  0
    6.5500   -9.2917    0.0000 N   0  0  0  0  0  0           0  0  0
    7.2625   -8.8792    0.0000 C   0  0  0  0  0  0           0  0  0
    5.1208  -10.1208    0.0000 O   0  0  0  0  0  0           0  0  0
    1.5500   -8.0667    0.0000 O   0  0  0  0  0  0           0  0  0
    8.6833   -8.0500    0.0000 O   0  0  0  0  0  0           0  0  0
  5  6  2  0     0  0
 11 12  2  0     0  0
 12  7  1  0     0  0
  6  1  1  0     0  0
 11 13  1  0     0  0
  1  2  2  0     0  0
 13 14  2  0     0  0
  3  4  2  0     0  0
 14 15  1  0     0  0
  7  8  2  0     0  0
 15 16  1  0     0  0
 16 17  1  0     0  0
  8  9  1  0     0  0
 17 18  1  0     0  0
  4  5  1  0     0  0
 18 19  2  0     0  0
 19  1  1  0     0  0
  9 10  2  0     0  0
 16 20  1  0     0  0
  2  3  1  0     0  0
 12 21  1  0     0  0
 10 11  1  0     0  0
  6 22  1  0     0  0
M  END
>  <prID>
994

>  <IDDB>
346088

>  <pIC50_HIV_Integrase>
4.214670165

>  <Q>
-1.224670183

>  <Activity_Integrase>
Inactive_Integrase

NA
NA
NA
NA
$$$$

  Accelrys05311914292D 1   1.00000     0.00000     0

 31 34  0     0  0            999 V2000
    8.0500  -10.4958    0.0000 N   0  0  0  0  0  0           0  0  0
    7.3766  -10.9826    0.0000 C   0  0  0  0  0  0           0  0  0
    7.6333  -11.7709    0.0000 C   0  0  0  0  0  0           0  0  0
    8.4625  -11.7709    0.0000 N   0  0  0  0  0  0           0  0  0
    8.7193  -10.9826    0.0000 C   0  0  0  0  0  0           0  0  0
    1.5194   -8.2500    0.0000 C   0  0  0  0  0  0           0  0  0
    1.5182   -9.0773    0.0000 C   0  0  0  0  0  0           0  0  0
    2.2331   -9.4902    0.0000 C   0  0  0  0  0  0           0  0  0
    2.9495   -9.0769    0.0000 C   0  0  0  0  0  0           0  0  0
    2.9466   -8.2463    0.0000 C   0  0  0  0  0  0           0  0  0
    2.2313   -7.8372    0.0000 C   0  0  0  0  0  0           0  0  0
    0.8000   -9.4833    0.0000 C   0  0  0  0  0  0           0  0  0
    3.6583   -7.8292    0.0000 C   0  0  0  0  0  0           0  0  0
    4.8333   -8.4750    0.0000 C   0  0  0  0  0  0           0  0  0
    3.6542   -7.0042    0.0000 O   0  0  0  0  0  0           0  0  0
    2.4444   -9.6833    0.0000 C   0  0  0  0  0  0           0  0  0
    2.4432  -10.5107    0.0000 C   0  0  0  0  0  0           0  0  0
    3.1581  -10.9235    0.0000 C   0  0  0  0  0  0           0  0  0
    3.8745  -10.5102    0.0000 C   0  0  0  0  0  0           0  0  0
    3.8716   -9.6797    0.0000 C   0  0  0  0  0  0           0  0  0
    3.1563   -9.2705    0.0000 C   0  0  0  0  0  0           0  0  0
    4.5833   -9.2625    0.0000 C   0  0  3  0  0  0           0  0  0
    1.7250  -10.9167    0.0000 Cl  0  0  0  0  0  0           0  0  0
    5.6625   -8.4791    0.0000 C   0  0  0  0  0  0           0  0  0
    5.9193   -9.2633    0.0000 C   0  0  0  0  0  0           0  0  0
    5.2500   -9.7500    0.0000 N   0  0  3  0  0  0           0  0  0
    6.4250   -7.9000    0.0000 O   0  0  0  0  0  0           0  0  0
    6.7375   -9.6792    0.0000 O   0  0  0  0  0  0           0  0  0
    5.2417  -10.5750    0.0000 C   0  0  0  0  0  0           0  0  0
    5.9542  -10.9875    0.0000 C   0  0  0  0  0  0           0  0  0
    6.6667  -10.5708    0.0000 C   0  0  0  0  0  0           0  0  0
  7  8  1  0     0  0
  3  4  1  0     0  0
 16 17  2  0     0  0
  8  9  2  0     0  0
 17 18  1  0     0  0
  4  5  2  0     0  0
 18 19  2  0     0  0
  9 10  1  0     0  0
 19 20  1  0     0  0
  5  1  1  0     0  0
 20 21  2  0     0  0
 21 16  1  0     0  0
 10 11  2  0     0  0
 20 22  1  0     0  0
 11  6  1  0     0  0
 17 23  1  0     0  0
 14 24  2  0     0  0
  2  3  2  0     0  0
  7 12  1  0     0  0
 24 25  1  0     0  0
 25 26  1  0     0  0
 26 22  1  0     0  0
 22 14  1  0     0  0
 10 13  1  0     0  0
 24 27  1  0     0  0
  6  7  2  0     0  0
 25 28  2  0     0  0
 13 14  1  0     0  0
 26 29  1  0     0  0
  1  2  1  0     0  0
 29 30  1  0     0  0
 13 15  2  0     0  0
 30 31  1  0     0  0
 31  2  1  0     0  0
M  END
>  <prID>
995

>  <IDDB>
346089

>  <pIC50_HIV_Integrase>
4.173925197

>  <Q>
-1.633523778

>  <Activity_Integrase>
Inactive_Integrase

NA
NA
NA
NA
$$$$

  Accelrys05311914292D 1   1.00000     0.00000     0

 29 32  0     0  0            999 V2000
    6.9233   -6.3638    0.0000 C   0  0  0  0  0  0           0  0  0
    7.5224   -6.9310    0.0000 C   0  0  0  0  0  0           0  0  0
    8.2480   -6.5382    0.0000 C   0  0  0  0  0  0           0  0  0
    8.0966   -5.7245    0.0000 S   0  0  0  0  0  0           0  0  0
    7.2790   -5.6208    0.0000 C   0  0  0  0  0  0           0  0  0
    7.5224   -7.7607    0.0000 C   0  0  0  0  0  0           0  0  0
    8.2372   -8.1735    0.0000 C   0  0  0  0  0  0           0  0  0
    8.9537   -7.7602    0.0000 C   0  0  0  0  0  0           0  0  0
    8.9508   -6.9297    0.0000 C   0  0  0  0  0  0           0  0  0
    6.1208   -6.5750    0.0000 O   0  0  0  0  0  0           0  0  0
    2.4302   -6.0245    0.0000 C   0  0  0  0  0  0           0  0  0
    2.4290   -6.8518    0.0000 C   0  0  0  0  0  0           0  0  0
    3.1438   -7.2647    0.0000 C   0  0  0  0  0  0           0  0  0
    3.8603   -6.8514    0.0000 C   0  0  0  0  0  0           0  0  0
    3.8574   -6.0208    0.0000 C   0  0  0  0  0  0           0  0  0
    3.1420   -5.6117    0.0000 C   0  0  0  0  0  0           0  0  0
    4.5691   -5.6037    0.0000 S   0  0  3  0  0  0           0  0  0
    5.2816   -5.1870    0.0000 O   0  0  0  0  0  0           0  0  0
    5.1524   -6.1870    0.0000 O   0  0  0  0  0  0           0  0  0
    3.9816   -5.0162    0.0000 N   0  0  0  0  0  0           0  0  0
    4.6441   -4.5245    0.0000 C   0  0  0  0  0  0           0  0  0
    4.5727   -3.0954    0.0000 C   0  0  0  0  0  0           0  0  0
    4.1953   -3.8317    0.0000 C   0  0  0  0  0  0           0  0  0
    5.4702   -4.4823    0.0000 C   0  0  0  0  0  0           0  0  0
    5.8454   -3.7413    0.0000 C   0  0  0  0  0  0           0  0  0
    5.3944   -3.0516    0.0000 C   0  0  0  0  0  0           0  0  0
    6.0500   -5.0625    0.0000 N   0  0  0  0  0  0           0  0  0
    6.8750   -5.0625    0.0000 C   0  0  0  0  0  0           0  0  0
    1.7083   -7.2583    0.0000 C   0  0  0  0  0  0           0  0  0
  6  7  2  0     0  0
 14 15  1  0     0  0
  2  3  2  0     0  0
 15 16  2  0     0  0
 16 11  1  0     0  0
  7  8  1  0     0  0
 15 17  1  0     0  0
  3  4  1  0     0  0
 17 18  2  0     0  0
  8  9  2  0     0  0
 17 19  2  0     0  0
  9  3  1  0     0  0
 17 20  1  0     0  0
  4  5  1  0     0  0
 20 21  1  0     0  0
  1 10  1  0     0  0
  5  1  2  0     0  0
 22 23  2  0     0  0
 23 21  1  0     0  0
  1  2  1  0     0  0
 21 24  2  0     0  0
 11 12  2  0     0  0
 24 25  1  0     0  0
  2  6  1  0     0  0
 25 26  2  0     0  0
 26 22  1  0     0  0
 12 13  1  0     0  0
 24 27  1  0     0  0
 27 28  2  0     0  0
  5 28  1  0     0  0
 13 14  2  0     0  0
 12 29  1  0     0  0
M  END
>  <prID>
996

>  <IDDB>
346090

>  <pIC50_HIV_Integrase>
4.167491087

>  <Q>
0.794189019

>  <Activity_Integrase>
Inactive_Integrase

NA
NA
NA
NA
$$$$

  Accelrys05311914292D 1   1.00000     0.00000     0

 35 38  0     0  0            999 V2000
    7.6916   -1.4667    0.0000 C   0  0  0  0  0  0           0  0  0
    7.0183   -1.9534    0.0000 O   0  0  0  0  0  0           0  0  0
    7.2750   -2.7417    0.0000 C   0  0  0  0  0  0           0  0  0
    8.1041   -2.7417    0.0000 C   0  0  0  0  0  0           0  0  0
    8.3609   -1.9534    0.0000 C   0  0  0  0  0  0           0  0  0
    8.1047   -5.6103    0.0000 C   0  0  0  0  0  0           0  0  0
    8.5302   -6.3199    0.0000 C   0  0  0  0  0  0           0  0  0
    9.3555   -6.3053    0.0000 C   0  0  0  0  0  0           0  0  0
    9.7564   -5.5818    0.0000 C   0  0  0  0  0  0           0  0  0
    9.3260   -4.8716    0.0000 C   0  0  0  0  0  0           0  0  0
    8.5020   -4.8897    0.0000 C   0  0  0  0  0  0           0  0  0
    5.0288   -6.7499    0.0000 C   0  0  0  0  0  0           0  0  0
    4.3654   -6.2498    0.0000 C   0  0  0  0  0  0           0  0  0
    4.6378   -5.4668    0.0000 C   0  0  0  0  0  0           0  0  0
    5.4668   -5.4834    0.0000 C   0  0  0  0  0  0           0  0  0
    5.7078   -6.2767    0.0000 S   0  0  0  0  0  0           0  0  0
    2.2168   -6.6267    0.0000 C   0  0  0  0  0  0           0  0  0
    2.1991   -7.4539    0.0000 C   0  0  0  0  0  0           0  0  0
    2.9054   -7.8811    0.0000 C   0  0  0  0  0  0           0  0  0
    3.6300   -7.4822    0.0000 C   0  0  0  0  0  0           0  0  0
    3.6439   -6.6518    0.0000 C   0  0  0  0  0  0           0  0  0
    2.9368   -6.2283    0.0000 C   0  0  0  0  0  0           0  0  0
    4.0582   -4.8634    0.0000 C   0  0  0  0  0  0           0  0  0
    3.2998   -5.0966    0.0000 O   0  0  0  0  0  0           0  0  0
    4.2867   -4.0678    0.0000 O   0  0  0  0  0  0           0  0  0
    3.6810   -3.5065    0.0000 C   0  0  0  0  0  0           0  0  0
    3.8708   -2.7054    0.0000 C   0  0  0  0  0  0           0  0  0
    6.0500   -4.8958    0.0000 N   0  0  0  0  0  0           0  0  0
    6.8750   -4.8958    0.0000 C   0  0  3  0  0  0           0  0  0
    7.2833   -4.1792    0.0000 N   0  0  0  0  0  0           0  0  0
    7.2833   -5.6083    0.0000 C   0  0  0  0  0  0           0  0  0
    6.8667   -6.3208    0.0000 O   0  0  0  0  0  0           0  0  0
   10.5792   -5.5792    0.0000 C   0  0  0  0  0  0           0  0  0
    6.8667   -3.4625    0.0000 C   0  0  0  0  0  0           0  0  0
    6.0417   -3.4625    0.0000 O   0  0  0  0  0  0           0  0  0
 17 18  2  0     0  0
  4  5  1  0     0  0
 18 19  1  0     0  0
  9 10  1  0     0  0
 19 20  2  0     0  0
  5  1  2  0     0  0
 20 21  1  0     0  0
 10 11  2  0     0  0
 21 22  2  0     0  0
 22 17  1  0     0  0
 21 13  1  0     0  0
 11  6  1  0     0  0
 14 23  1  0     0  0
 13 14  1  0     0  0
 23 24  2  0     0  0
  2  3  1  0     0  0
 23 25  1  0     0  0
 25 26  1  0     0  0
  6  7  2  0     0  0
 26 27  1  0     0  0
  1  2  1  0     0  0
 15 28  1  0     0  0
  7  8  1  0     0  0
 28 29  1  0     0  0
 12 13  2  0     0  0
 29 30  1  0     0  0
 14 15  2  0     0  0
 29 31  1  0     0  0
 15 16  1  0     0  0
 31 32  2  0     0  0
 31  6  1  0     0  0
 16 12  1  0     0  0
  9 33  1  0     0  0
  3  4  2  0     0  0
 30 34  1  0     0  0
 34  3  1  0     0  0
  8  9  2  0     0  0
 34 35  2  0     0  0
M  END
>  <prID>
997

>  <IDDB>
346091

>  <pIC50_HIV_Integrase>
4.102372909

>  <Q>
-0.023719935

>  <Activity_Integrase>
Inactive_Integrase

NA
NA
NA
NA
$$$$

  Accelrys05311914292D 1   1.00000     0.00000     0

 26 28  0     0  0            999 V2000
    3.6720   -2.6708    0.0000 C   0  0  0  0  0  0           0  0  0
    4.0892   -3.3853    0.0000 C   0  0  0  0  0  0           0  0  0
    4.9146   -3.3803    0.0000 C   0  0  0  0  0  0           0  0  0
    5.3239   -2.6615    0.0000 C   0  0  0  0  0  0           0  0  0
    4.9016   -1.9463    0.0000 C   0  0  0  0  0  0           0  0  0
    4.0776   -1.9549    0.0000 C   0  0  0  0  0  0           0  0  0
    5.3049   -1.2266    0.0000 C   0  0  0  0  0  0           0  0  0
    6.1292   -1.2250    0.0000 C   0  0  0  0  0  0           0  0  0
    6.5375   -0.5083    0.0000 C   0  0  0  0  0  0           0  0  0
    7.3625   -0.5083    0.0000 N   0  0  0  0  0  0           0  0  0
    6.1208    0.2083    0.0000 O   0  0  0  0  0  0           0  0  0
    3.6708   -4.0958    0.0000 Cl  0  0  0  0  0  0           0  0  0
    7.7543   -1.2304    0.0000 C   0  0  0  0  0  0           0  0  0
    7.3340   -1.9431    0.0000 C   0  0  0  0  0  0           0  0  0
    7.7411   -2.6613    0.0000 C   0  0  0  0  0  0           0  0  0
    8.5682   -2.6679    0.0000 C   0  0  0  0  0  0           0  0  0
    8.9866   -1.9505    0.0000 C   0  0  0  0  0  0           0  0  0
    8.5771   -1.2353    0.0000 C   0  0  0  0  0  0           0  0  0
    8.9635   -3.3895    0.0000 N   0  0  0  0  0  0           0  0  0
   11.4135   -2.1559    0.0000 C   0  0  0  0  0  0           0  0  0
   11.1609   -2.9475    0.0000 O   0  0  0  0  0  0           0  0  0
   10.3319   -2.9493    0.0000 C   0  0  0  0  0  0           0  0  0
   10.0734   -2.1615    0.0000 C   0  0  0  0  0  0           0  0  0
   10.7424   -1.6717    0.0000 C   0  0  0  0  0  0           0  0  0
    9.7743   -3.5620    0.0000 C   0  0  0  0  0  0           0  0  0
   10.0315   -4.3459    0.0000 O   0  0  0  0  0  0           0  0  0
  1  2  2  0     0  0
 13 14  2  0     0  0
  5  7  1  0     0  0
 14 15  1  0     0  0
  3  4  2  0     0  0
 15 16  2  0     0  0
  7  8  2  0     0  0
 16 17  1  0     0  0
 17 18  2  0     0  0
 18 13  1  0     0  0
 10 13  1  0     0  0
  8  9  1  0     0  0
 16 19  1  0     0  0
 21 22  1  0     0  0
  4  5  1  0     0  0
  9 10  1  0     0  0
  2  3  1  0     0  0
  9 11  2  0     0  0
  5  6  2  0     0  0
 20 21  1  0     0  0
 22 23  2  0     0  0
 23 24  1  0     0  0
 24 20  2  0     0  0
  2 12  1  0     0  0
 19 25  1  0     0  0
 25 22  1  0     0  0
  6  1  1  0     0  0
 25 26  2  0     0  0
M  END
>  <prID>
998

>  <IDDB>
346092

>  <pIC50_HIV_Integrase>
4.040958608

>  <Q>
-0.905038748

>  <Activity_Integrase>
Inactive_Integrase

NA
NA
NA
NA
$$$$

  Accelrys05311914292D 1   1.00000     0.00000     0

 32 34  0     0  0            999 V2000
    6.4194   -2.1208    0.0000 C   0  0  0  0  0  0           0  0  0
    6.4182   -2.9482    0.0000 C   0  0  0  0  0  0           0  0  0
    7.1331   -3.3610    0.0000 C   0  0  0  0  0  0           0  0  0
    7.8495   -2.9477    0.0000 C   0  0  0  0  0  0           0  0  0
    7.8466   -2.1172    0.0000 C   0  0  0  0  0  0           0  0  0
    7.1313   -1.7080    0.0000 C   0  0  0  0  0  0           0  0  0
    5.7000   -3.3542    0.0000 C   0  0  0  0  0  0           0  0  0
    5.7000   -1.7042    0.0000 Cl  0  0  0  0  0  0           0  0  0
    8.5583   -1.7000    0.0000 Cl  0  0  0  0  0  0           0  0  0
    5.0333   -2.8667    0.0000 O   0  0  0  0  0  0           0  0  0
    4.3599   -3.3534    0.0000 C   0  0  0  0  0  0           0  0  0
    4.6166   -4.1417    0.0000 C   0  0  0  0  0  0           0  0  0
    5.4458   -4.1417    0.0000 C   0  0  0  0  0  0           0  0  0
   -0.6292   -4.5958    0.0000 O   0  0  0  0  0  0           0  0  0
    0.0833   -4.1833    0.0000 C   0  0  0  0  0  0           0  0  0
    0.7958   -4.5917    0.0000 C   0  0  0  0  0  0           0  0  0
    1.5083   -4.1792    0.0000 C   0  0  0  0  0  0           0  0  0
    2.2208   -4.5875    0.0000 N   0  0  0  0  0  0           0  0  0
    2.9333   -4.1750    0.0000 C   0  0  0  0  0  0           0  0  0
    3.6458   -4.5833    0.0000 O   0  0  0  0  0  0           0  0  0
    2.2250   -2.9375    0.0000 N   0  0  0  0  0  0           0  0  0
    2.9375   -3.3500    0.0000 C   0  0  0  0  0  0           0  0  0
    3.6500   -2.9375    0.0000 C   0  0  0  0  0  0           0  0  0
    0.0902   -0.8750    0.0000 C   0  0  0  0  0  0           0  0  0
    0.0891   -1.7023    0.0000 C   0  0  0  0  0  0           0  0  0
    0.8039   -2.1152    0.0000 C   0  0  0  0  0  0           0  0  0
    1.5203   -1.7019    0.0000 C   0  0  0  0  0  0           0  0  0
    1.5175   -0.8713    0.0000 C   0  0  0  0  0  0           0  0  0
    0.8021   -0.4622    0.0000 C   0  0  0  0  0  0           0  0  0
   -0.6292   -0.4583    0.0000 C   0  0  0  0  0  0           0  0  0
    2.2292   -2.1125    0.0000 C   0  0  0  0  0  0           0  0  0
    2.9417   -1.6958    0.0000 O   0  0  0  0  0  0           0  0  0
 15 16  1  0     0  0
  1  8  1  0     0  0
 16 17  1  0     0  0
 17 18  1  0     0  0
  5  9  1  0     0  0
 18 19  1  0     0  0
 11 12  2  0     0  0
 19 20  2  0     0  0
  4  5  1  0     0  0
  2  3  1  0     0  0
 21 22  1  0     0  0
  5  6  2  0     0  0
 22 23  2  0     0  0
 23 11  1  0     0  0
  6  1  1  0     0  0
 10 11  1  0     0  0
 24 25  2  0     0  0
 12 13  1  0     0  0
 25 26  1  0     0  0
 13  7  2  0     0  0
 26 27  2  0     0  0
  7 10  1  0     0  0
 27 28  1  0     0  0
  1  2  2  0     0  0
 28 29  2  0     0  0
 29 24  1  0     0  0
  2  7  1  0     0  0
 24 30  1  0     0  0
 14 15  1  0     0  0
 27 31  1  0     0  0
 31 21  1  0     0  0
  3  4  2  0     0  0
 31 32  2  0     0  0
 22 19  1  0     0  0
M  END
>  <prID>
999

>  <IDDB>
346093

>  <pIC50_HIV_Integrase>
4.070581074

>  <Q>
-3.372129347

>  <Activity_Integrase>
Inactive_Integrase

NA
NA
NA
NA
$$$$

  Accelrys05311914292D 1   1.00000     0.00000     0

 30 32  0     0  0            999 V2000
    1.0027   -3.2250    0.0000 C   0  0  0  0  0  0           0  0  0
    1.0016   -4.0523    0.0000 C   0  0  0  0  0  0           0  0  0
    1.7164   -4.4652    0.0000 C   0  0  0  0  0  0           0  0  0
    2.4328   -4.0519    0.0000 C   0  0  0  0  0  0           0  0  0
    2.4300   -3.2213    0.0000 C   0  0  0  0  0  0           0  0  0
    1.7146   -2.8122    0.0000 C   0  0  0  0  0  0           0  0  0
    1.7208   -2.0334    0.0000 N   0  0  0  0  0  0           0  0  0
    2.4333   -1.6209    0.0000 C   0  0  0  0  0  0           0  0  0
    0.7558   -0.8367    0.0000 C   0  0  0  0  0  0           0  0  0
    1.4683   -0.4242    0.0000 C   0  0  0  0  0  0           0  0  0
    2.1808   -0.8367    0.0000 C   0  0  0  0  0  0           0  0  0
    7.0777    0.4125    0.0000 C   0  0  0  0  0  0           0  0  0
    7.0766   -0.4148    0.0000 C   0  0  0  0  0  0           0  0  0
    7.7914   -0.8277    0.0000 C   0  0  0  0  0  0           0  0  0
    8.5078   -0.4144    0.0000 C   0  0  0  0  0  0           0  0  0
    8.5050    0.4162    0.0000 C   0  0  0  0  0  0           0  0  0
    7.7896    0.8253    0.0000 C   0  0  0  0  0  0           0  0  0
    3.5151   -0.8367    0.0000 C   0  0  0  0  0  0           0  0  0
    4.2276   -0.4242    0.0000 C   0  0  0  0  0  0           0  0  0
    4.9401   -0.8326    0.0000 C   0  0  0  0  0  0           0  0  0
    5.6526   -0.4201    0.0000 C   0  0  0  0  0  0           0  0  0
    6.3651   -0.8284    0.0000 N   0  0  0  0  0  0           0  0  0
    3.2583   -1.6209    0.0000 S   0  0  0  0  0  0           0  0  0
    2.8458   -0.3500    0.0000 C   0  0  0  0  0  0           0  0  0
    1.4625    0.4042    0.0000 O   0  0  0  0  0  0           0  0  0
    4.2208    0.4042    0.0000 O   0  0  0  0  0  0           0  0  0
    5.6458    0.4083    0.0000 O   0  0  0  0  0  0           0  0  0
    9.2167    0.8333    0.0000 N   0  3  0  0  0  0           0  0  0
    9.2125    1.6583    0.0000 O   0  5  0  0  0  0           0  0  0
    9.9292    0.4208    0.0000 O   0  0  0  0  0  0           0  0  0
 15 16  1  0     0  0
  7  8  1  0     0  0
 16 17  2  0     0  0
 17 12  1  0     0  0
  4  5  1  0     0  0
 18 19  1  0     0  0
  9 10  1  0     0  0
 19 20  1  0     0  0
  2  3  1  0     0  0
 20 21  1  0     0  0
 10 11  1  0     0  0
 21 22  1  0     0  0
 22 13  1  0     0  0
  8 23  1  0     0  0
  5  6  2  0     0  0
  6  1  1  0     0  0
 23 18  1  0     0  0
 18 24  2  0     0  0
 24 11  1  0     0  0
 11  8  2  0     0  0
 12 13  2  0     0  0
 10 25  2  0     0  0
  1  2  2  0     0  0
 19 26  2  0     0  0
 13 14  1  0     0  0
 21 27  2  0     0  0
  6  7  1  0     0  0
 16 28  1  0     0  0
 14 15  2  0     0  0
 28 29  1  0     0  0
  3  4  2  0     0  0
 28 30  2  0     0  0
M  CHG  2  28   1  29  -1
M  END
>  <prID>
1000

>  <IDDB>
346094

>  <pIC50_HIV_Integrase>
4.552841969

>  <Q>
0.089015718

>  <Activity_Integrase>
Inactive_Integrase

NA
NA
NA
NA
$$$$
